$ Elements and Element Properties for region : beam
PBEAML   1       1               BAR
        .05     .005
$ Pset: "beam" will be imported as: "pbeaml.1"
CBEAM    1       1       1       2       0.      0.     1.
CBEAM    2       1       2       3       0.      0.     1.
CBEAM    3       1       3       4       0.      0.     1.
CBEAM    4       1       4       5       0.      0.     1.
CBEAM    5       1       5       6       0.      0.     1.
CBEAM    6       1       6       7       0.      0.     1.
CBEAM    7       1       7       8       0.      0.     1.
CBEAM    8       1       8       9       0.      0.     1.
CBEAM    9       1       9       10      0.      0.     1.
CBEAM    10      1       10      11      0.      0.     1.
CBEAM    11      1       11      12      0.      0.     1.
CBEAM    12      1       12      13      0.      0.     1.
CBEAM    13      1       13      14      0.      0.     1.
CBEAM    14      1       14      15      0.      0.     1.
CBEAM    15      1       15      16      0.      0.     1.
CBEAM    16      1       16      17      0.      0.     1.
CBEAM    17      1       17      18      0.      0.     1.
CBEAM    18      1       18      19      0.      0.     1.
CBEAM    19      1       19      20      0.      0.     1.
CBEAM    20      1       20      21      0.      0.     1.
$ ... 80 like lines cut
$ Referenced Material Records
$ Material Record : Aluminum
$ Description of Material : Date: 18-Jan-21           Time: 11:05:18
MAT1     1      6.9+10          .33     2700.
$ Nodes of the Entire Model
GRID     1               0.      0.      0.
GRID*    2                              .019999999552965 0.
*        0.
GRID*    3                              .03999999910593  0.
*        0.
GRID*    4                              .059999998658895 0.
*        0.
GRID*    5                              .079999998211861 0.
*        0.
GRID*    6                              .100000001490116 0.
*        0.
GRID*    7                              .119999997317791 0.
*        0.
GRID*    8                              .140000000596046 0.
*        0.
GRID*    9                              .159999996423721 0.
*        0.
GRID*    10                             .180000007152557 0.
*        0.
GRID*    11                             .200000002980232 0.
*        0.
GRID*    12                             .219999998807907 0.
*        0.
GRID*    13                             .239999994635582 0.
*        0.
GRID*    14                             .259999990463257 0.
*        0.
GRID*    15                             .280000001192093 0.
*        0.
GRID*    16                             .300000011920929 0.
*        0.
GRID*    17                             .319999992847443 0.
*        0.
GRID*    18                             .340000003576279 0.
*        0.
GRID*    19                             .360000014305115 0.
*        0.
GRID*    20                             .379999995231628 0.
*        0.
GRID*    21                             .400000005960465 0.
*        0.
$ ... 8 like lines cut
GRID     26             .5       0.      0.
GRID*    27                             .519999980926514 0.
*        0.
GRID*    28                             .540000021457672 0.
*        0.
GRID*    29                             .560000002384186 0.
*        0.
GRID*    30                             .5799999833107   0.
*        0.
GRID*    31                             .600000023841858 0.
*        0.
GRID*    32                             .620000004768372 0.
*        0.
GRID*    33                             .639999985694885 0.
*        0.
GRID*    34                             .660000026226044 0.
*        0.
GRID*    35                             .680000007152557 0.
*        0.
GRID*    36                             .699999988079071 0.
*        0.
GRID*    37                             .72000002861023  0.
*        0.
GRID*    38                             .740000009536743 0.
*        0.
GRID*    39                             .759999990463257 0.
*        0.
GRID*    40                             .779999971389771 0.
*        0.
GRID*    41                             .800000011920929 0.
*        0.
GRID*    42                             .819999992847443 0.
*        0.
GRID*    43                             .839999973773956 0.
*        0.
GRID*    44                             .860000014305115 0.
*        0.
GRID*    45                             .879999995231628 0.
*        0.
GRID*    46                             .899999976158142 0.
*        0.
$ ... 8 like lines cut
GRID     51             1.       0.      0.
GRID*    52                             1.01999998092651 0.
*        0.
GRID*    53                             1.03999996185303 0.
*        0.
GRID*    54                             1.05999994277954 0.
*        0.
GRID*    55                             1.08000004291534 0.
*        0.
GRID*    56                             1.10000002384186 0.
*        0.
GRID*    57                             1.12000000476837 0.
*        0.
GRID*    58                             1.13999998569489 0.
*        0.
GRID*    59                             1.1599999666214  0.
*        0.
GRID*    60                             1.17999994754791 0.
*        0.
GRID*    61                             1.20000004768372 0.
*        0.
GRID*    62                             1.22000002861023 0.
*        0.
GRID*    63                             1.24000000953674 0.
*        0.
GRID*    64                             1.25999999046326 0.
*        0.
GRID*    65                             1.27999997138977 0.
*        0.
GRID*    66                             1.29999995231628 0.
*        0.
GRID*    67                             1.32000005245209 0.
*        0.
GRID*    68                             1.3400000333786  0.
*        0.
GRID*    69                             1.36000001430512 0.
*        0.
GRID*    70                             1.37999999523163 0.
*        0.
GRID*    71                             1.39999997615814 0.
*        0.
$ ... 8 like lines cut
GRID     76             1.5      0.      0.
GRID*    77                             1.51999998092651 0.
*        0.
GRID*    78                             1.53999996185303 0.
*        0.
GRID*    79                             1.55999994277954 0.
*        0.
GRID*    80                             1.58000004291534 0.
*        0.
GRID*    81                             1.60000002384186 0.
*        0.
GRID*    82                             1.62000000476837 0.
*        0.
GRID*    83                             1.63999998569489 0.
*        0.
GRID*    84                             1.6599999666214  0.
*        0.
GRID*    85                             1.67999994754791 0.
*        0.
GRID*    86                             1.70000004768372 0.
*        0.
GRID*    87                             1.72000002861023 0.
*        0.
GRID*    88                             1.74000000953674 0.
*        0.
GRID*    89                             1.75999999046326 0.
*        0.
GRID*    90                             1.77999997138977 0.
*        0.
GRID*    91                             1.79999995231628 0.
*        0.
GRID*    92                             1.82000005245209 0.
*        0.
GRID*    93                             1.8400000333786  0.
*        0.
GRID*    94                             1.86000001430512 0.
*        0.
GRID*    95                             1.87999999523163 0.
*        0.
GRID*    96                             1.89999997615814 0.
*        0.
$ ... 8 like lines cut
GRID     101            2.       0.      0.

