$pyNastran: version=msc
$pyNastran: punch=True
$pyNastran: encoding=utf-8
$pyNastran: nnodes=151
$pyNastran: nelements=150
$NODES
$NODES
$
$----------Grid Points----------
GRID           1              1.      1.      1.
GRID           2            1.01      1.      1.
GRID           3            1.02      1.      1.
GRID           4            1.03      1.      1.
GRID           5            1.04      1.      1.
GRID           6            1.05      1.      1.
GRID           7            1.06      1.      1.
GRID           8            1.07      1.      1.
GRID           9            1.08      1.      1.
GRID          10            1.09      1.      1.
GRID          11             1.1      1.      1.
GRID          12            1.11      1.      1.
GRID          13            1.12      1.      1.
GRID          14            1.13      1.      1.
GRID          15            1.14      1.      1.
GRID          16            1.15      1.      1.
GRID          17            1.16      1.      1.
GRID          18            1.17      1.      1.
GRID          19            1.18      1.      1.
GRID          20            1.19      1.      1.
$ ... 131 like lines cut
$ELEMENTS
$ELEMENTS
$
$----------Beam Elements----------
CBEAM          1       1       1       2      0.      0.      1.
CBEAM          2       1       2       3      0.      0.      1.
CBEAM          3       1       3       4      0.      0.      1.
CBEAM          4       1       4       5      0.      0.      1.
CBEAM          5       1       5       6      0.      0.      1.
CBEAM          6       1       6       7      0.      0.      1.
CBEAM          7       1       7       8      0.      0.      1.
CBEAM          8       1       8       9      0.      0.      1.
CBEAM          9       1       9      10      0.      0.      1.
CBEAM         10       1      10      11      0.      0.      1.
CBEAM         11       2      11      12      0.      0.      1.
CBEAM         12       2      12      13      0.      0.      1.
CBEAM         13       2      13      14      0.      0.      1.
CBEAM         14       2      14      15      0.      0.      1.
CBEAM         15       2      15      16      0.      0.      1.
CBEAM         16       2      16      17      0.      0.      1.
CBEAM         17       2      17      18      0.      0.      1.
CBEAM         18       2      18      19      0.      0.      1.
CBEAM         19       2      19      20      0.      0.      1.
CBEAM         20       2      20      21      0.      0.      1.
$ ... 130 like lines cut
$PROPERTIES
$PROPERTIES
$
$----------Element Property----------
PBEAML         1       1             BAR
             .05    .003      0.
PBEAML         2       2             BAR
             .05    .003      0.
PBEAML         3       3             BAR
             .05    .003      0.
PBEAML         4       4             BAR
             .05    .003      0.
PBEAML         5       5             BAR
             .05    .003      0.
PBEAML         6       6             BAR
             .05    .003      0.
PBEAML         7       7             BAR
             .05    .003      0.
PBEAML         8       8             BAR
             .05    .003      0.
PBEAML         9       9             BAR
             .05    .003      0.
PBEAML        10      10             BAR
             .05    .003      0.
PBEAML        11      11             BAR
             .05    .003      0.
PBEAML        12      12             BAR
             .05    .003      0.
PBEAML        13      13             BAR
             .05    .003      0.
PBEAML        14      14             BAR
             .05    .003      0.
PBEAML        15      15             BAR
             .05    .003      0.
$MATERIALS
$MATERIALS
$
$----------Material Properties----------
MAT1           17.065+10        .33308652715.105
MAT1           27.331+10        .34560982634.789
MAT1           37.145+10        .33684812619.327
MAT1           47.008+10        .33036182580.562
MAT1           57.184+102.587+10.32253152566.318
MAT1           6 6.79+10        .32008762774.154
MAT1           77.073+10        .33342362725.635
MAT1           8 7.33+10        .34555562629.975
MAT1           97.108+10        .33508342755.297
MAT1          107.334+10        .34576422624.046
MAT1          116.954+10        .32781082665.098
MAT1          127.221+10        .3404383 2694.63
MAT1          137.119+10        .33559972796.397
MAT1          14 7.02+10        .33095812662.452
MAT1          15 6.86+10        .32340042707.851
$SPCs
$SPCs
SPCADD       777       1
$----------Boundary Conditions----------
SPC1           1  123456       1
