CORD2C         1       0      0.      0.      0.      0.      0.      1.+FEMAPC1
+FEMAPC1      1.      0.      1.        
CORD2S         2       0      0.      0.      0.      0.      0.      1.+FEMAPC2
+FEMAPC2      1.      0.      1.        
$ Femap Constraint Set 1 : constraint
SPC1           1  123456     169
SPC1           1  123456     170
SPC1           1  123456     171
SPC1           1  123456     172
SPC1           1  123456     173
SPC1           1  123456     174
SPC1           1  123456     175
SPC1           1  123456     176
SPC1           1  123456     177
SPC1           1  123456     178
SPC1           1  123456     179
SPC1           1  123456     180
SPC1           1  123456     181
SPC1           1  123456     182
SPC1           1  123456     183
SPC1           1  123456     184
SPC1           1  123456     185
SPC1           1  123456     186
SPC1           1  123456     187
SPC1           1  123456     188
$ ... 45 like lines cut
$ Femap Property 1 : LAMINATE PLATE Property
PCOMP          1              0.                                        +       
+             10   1.9-4      0.     YES      11   1.9-4    -90.     YES+       
+             11   1.9-4    -45.     YES      12   .0125      0.     YES+       
+             11   1.9-4     45.     YES      11   1.9-4      0.     YES+       
+             10   1.9-4      0.     YES
$ Femap Property 2 : LAMINATE PLATE Property
PCOMP          2              0.                                        +       
+             10   1.9-4      0.     YES      11   1.9-4    -90.     YES+       
+             11   1.9-4    -45.     YES      12   .0125      0.     YES+       
+             11   1.9-4     45.     YES      11   1.9-4      0.     YES+       
+             10   1.9-4      0.     YES
$ Femap Property 3 : LAMINATE PLATE Property
PCOMP          3              0.                                        +       
+             10   1.9-4      0.     YES      11   1.9-4    -90.     YES+       
+             11   1.9-4    -45.     YES      12   .0125      0.     YES+       
+             11   1.9-4     45.     YES      11   1.9-4      0.     YES+       
+             10   1.9-4      0.     YES
$ Femap Property 4 : PLATE Property
PSHELL         4       3 .013462       3               3              0.
$ Femap Property 5 : PLATE Property
PSHELL         5       3 .013462       3               3              0.
$ Femap Property 6 : PLATE Property
PSHELL         6       3 .013462       3               3              0.
$ Femap Property 7 : PLATE Property
PSHELL         7       3 .013462       3               3              0.
$ Femap Property 8 : PLATE Property
PSHELL         8       3     .02       3               3              0.
$ Femap Property 9 : PLATE Property
PSHELL         9       3     .02       3               3              0.
$ Femap Material 1 : ISOTROPIC Material
MAT1           1  7.1+102.669+10     .33   2770.   2.3-5     22.        
$ Femap Material 2 : ISOTROPIC Material
MAT1           2  7.1+102.669+10     .33   2770.   2.3-5     22.        
$ Femap Material 3 : ISOTROPIC Material
MAT1           36.895+102.592+10     .33   2700.      0.     22.        
$ Femap Material 7 : ISOTROPIC Material
MAT1           7  7.1+102.669+10     .33   2770.   2.3-5     22.        
$ Femap Material 10 : 2D ORTHOTROPIC Material
MAT8          10 1.21+11   8.6+9     .27   4.7+9   4.7+9   3.1+9   1490.+       
+         -4.7-7    3.-5     22.                                        +       
+                               
$ Femap Material 11 : 2D ORTHOTROPIC Material
MAT8          116.134+106.134+10     .04   3.3+9   2.7+9   2.7+9   1420.+       
+          2.2-6   2.2-6     22.                                        +       
+                               
$ Femap Material 12 : 2D ORTHOTROPIC Material
MAT8          121000000.1000000.     .49      1.    7.+7   3.7+7     80.+       
+             0.      0.     22.                                        +       
+                               
GRID           1       03.407229 .3603172.494483       0
GRID           2       0 3.50947  .365312.495009       0
GRID           3       0 3.45832  .363042.494363       0
GRID           4       03.410387 .4632762.491314       0
GRID           5       03.511973 .4696982.491826       0
GRID           6       03.461148  .466782.491187       0
GRID           7       03.408806 .4117952.492899       0
GRID           8       03.459734  .414912.492775       0
GRID           9       03.510723 .4175042.493418       0
GRID          10       03.415126 .6177882.486558       0
GRID          11       03.413556  .566242.488145       0
GRID          12       03.515717 .6263712.487048       0
GRID          13       03.514474  .574092.488642       0
GRID          14       03.465379 .6224662.486421       0
GRID          15       03.463975 .5705242.488011       0
GRID          16       03.411971 .5147572.489729       0
GRID          17       03.462562 .5186512.489599       0
GRID          18       03.513224 .5218932.490234       0
GRID          19       03.208101 .4437112.499059       0
GRID          20       03.203411 .3450942.502231       0
$ ... 9234 like lines cut
CQUAD4       891       1     150     143     155     15489.54784        
CQUAD4       892       1     143     142     156     15590.16602        
CQUAD4       893       1     142     164     163     15690.80815        
CQUAD4       894       1     141     149     148     145-90.3617        
CQUAD4       895       1     143     150     149     141-90.4529        
CQUAD4       896       1     165     140     144     166-89.3504        
CQUAD4       897       1     140     141     145     144-89.8651        
CQUAD4       898       1     164     142     140     165-89.1927        
CQUAD4       899       1     142     143     141     140-89.8348        
CQUAD4       900       1     147     139     145     14889.82524        
CQUAD4       901       1     139     138     144     14590.05769        
CQUAD4       902       1     138     167     166     14490.31238        
CQUAD4       903       1     137     146     179     178-90.0948        
CQUAD4       904       1     139     147     146     137-90.1755        
CQUAD4       905       1     168     136     177     176-89.8311        
CQUAD4       906       1     136     137     178     177-89.9608        
CQUAD4       907       1     167     138     136     168-89.6884        
CQUAD4       908       1     138     139     137     136-89.9431        
CQUAD4       909       1     132     130     135     134-91.3126        
CQUAD4       910       1     130    8508    8507     135-91.4407        
$ ... 480 like lines cut
CTRIA3      2576       2     489     499     494-117.774                
CQUAD4      2577       2     488     494     501     496-90.5011        
CQUAD4      2578       2     487     496     502     495-91.7256        
CQUAD4      2579       2     498    3900    3899     491 87.7255        
CQUAD4      2580       2     503     497     490     495 87.1973        
CQUAD4      2581       2     504     498     491     49787.59843        
CQUAD4      2582       2     492     500     506     499-100.249        
CQUAD4      2583       2    7640     500     493    764181.52146        
CQUAD4      2584       2     494     499     507     501-72.9687        
CQUAD4      2585       2     496     501     510     502-89.5225        
CQUAD4      2586       2     508     503     495     50286.84302        
CQUAD4      2587       2     505    3901    3900     49888.02831        
CQUAD4      2588       2     509     504     497     50387.39006        
CQUAD4      2589       2     511     505     498     50487.92661        
CQUAD4      2590       2     499     506     515     507-96.6792        
CQUAD4      2591       2     500    7640    7639     506-98.4807        
CQUAD4      2592       2     501     507     517     510-89.1671        
CQUAD4      2593       2     513     509     503     50886.33709        
CQUAD4      2594       2     502     510     516     508-92.0152        
CQUAD4      2595       2     512    3902    3901     50588.33268        
CQUAD4      2596       2     514     511     504     50987.72205        
$ ... 33 like lines cut
CTRIA3      2630       2     534     546     541-115.493                
CQUAD4      2631       2     548     542     535     54192.75548        
CQUAD4      2632       2     549     543     536     54290.22325        
CQUAD4      2633       2     550     544     537     54393.55854        
CQUAD4      2634       2     547    3907    3906     54083.52111        
CQUAD4      2635       2     551     547     540     54494.46161        
CQUAD4      2636       2     538     545     552     546-97.8926        
CQUAD4      2637       2    7634     545     539    763583.89703        
CQUAD4      2638       2     553     548     541     54692.15351        
CQUAD4      2639       2     555     549     542     54890.51486        
CQUAD4      2640       2     550     543     549     554 2.83352        
CQUAD4      2641       2     556     551     544     550101.9797        
CQUAD4      2642       2     384    3908    3907     54766.29468        
CQUAD4      2643       2     545    7634    7633     552-96.1048        
CQUAD4      2644       2     558     553     546     55288.48004        
CQUAD4      2645       2     559     555     548     55391.51754        
CQUAD4      2646       2     549     555     560     554-89.4854        
CQUAD4      2647       2     384     547     551     38316.49505        
CQUAD4      2648       2     556     550     554     5578.138013        
CQUAD4      2649       2     551     556     382     383-77.9916        
CTRIA3      2650       2     554     560     557-101.456                
CQUAD4      2651       2     384     385    3909    3908 130.769        
CQUAD4      2652       2    7632     558     552    763388.14264        
CQUAD4      2653       2     562     559     553     55873.83672        
CQUAD4      2654       2     382     556     557     38111.46413        
CQUAD4      2655       2     560     555     559     561-6.02517        
CQUAD4      2656       2     381     557     560     380 16.4968        
CQUAD4      2657       2    3910    3909     385     386-15.4452        
CTRIA3      2658       2     559     562     561-106.166                
CQUAD4      2659       2    7631     562     558    763295.97098        
CQUAD4      2660       2     380     560     561     37919.61598        
CTRIA3      2661       2     386    3911    3910126.4036                
CQUAD4      2662       2     562     378     379     561-169.116        
CQUAD4      2663       2     387    3912    3911     386 138.153        
CQUAD4      2664       2     378     562    7631    761710.92143        
CTRIA3      2665       2     387    3884    3912166.1496                
CQUAD4      2666       2     596     593     592     59892.44583        
CQUAD4      2667       2     598     592     588     58792.10612        
CQUAD4      2668       2     579     597     599     58091.77525        
CQUAD4      2669       2     597     596     598     59992.13315        
CQUAD4      2670       2     580     599     586     58191.51752        
CQUAD4      2671       2     599     598     587     58691.84064        
CQUAD4      2672       2     593     596     600     594-87.5551        
CQUAD4      2673       2     596     597     601     600-87.8678        
CQUAD4      2674       2     597     579     578     601-88.2258        
CQUAD4      2675       2     567     566     595     60293.46169        
CQUAD4      2676       2     602     595     594     60093.12986        
CQUAD4      2677       2     569     568     603     57792.50079        
CQUAD4      2678       2     568     567     602     60393.00869        
CQUAD4      2679       2     577     603     601     57892.24917        
CQUAD4      2680       2     603     602     600     60192.72288        
CQUAD4      2681       2     605     604     608     60793.48664        
CQUAD4      2682       2     604    7643    7644     60893.74664        
CQUAD4      2683       2     607     608     591     59092.99312        
CQUAD4      2684       2     608    7644    7645     59193.20449        
CQUAD4      2685       2     593     606     609     59292.79476        
$ ... 1386 like lines cut
CTRIA3     11675       2    1829    1825    1830-21.7596                
CQUAD4     11676       2    1831    1778    1779    1832179.6683        
CQUAD4     11677       2    1832    1779    7689    7690178.2051        
CQUAD4     11678       2    1829    1831    1832    1828178.3552        
CQUAD4     11679       2    1828    1832    7690    7691176.0238        
CQUAD4     11680       2    1811    1776    1777    1833-178.184        
CQUAD4     11681       2    1833    1777    1778    1831-179.222        
CQUAD4     11682       2    1810    1811    1833    1830-176.318        
CQUAD4     11683       2    1830    1833    1831    1829-178.434        
CQUAD4     11684       2    1841    1840    1846    1844.6631738        
CQUAD4     11685       2    1840    1836    1835    1846.6574647        
CQUAD4     11686       2    8575    8574    1845    1847-179.726        
CQUAD4     11687       2    1847    1845    1844    1846-179.588        
CQUAD4     11688       2    8576    8575    1847    1834-179.726        
CQUAD4     11689       2    1834    1847    1846    1835-179.595        
CQUAD4     11690       2    1842    1841    1844    1848.6713604        
CQUAD4     11691       2    1848    1844    1845    1849.5462689        
CQUAD4     11692       2    1849    1845    8574    8573.4121364        
CQUAD4     11693       2    7365    1843    1850    7364.6270378        
CQUAD4     11694       2    1843    1842    1848    1850.6757897        
CQUAD4     11695       2    8572    8538    7363    1851-179.727        
$ ... 249 like lines cut
CTRIA3     11945       2    2067    2036    2065-17.7289                
CQUAD4     11946       2    7709    7708    2067    2061-3.07044        
CQUAD4     11947       2    2061    2067    2065    2060.4593028        
CQUAD4     11948       2    1992    1993    2070    2068-177.925        
CQUAD4     11949       2    1993    1902    1903    2070-178.756        
CQUAD4     11950       2    2056    2057    2069    20713.622029        
CQUAD4     11951       2    2071    2069    2068    20703.428299        
CQUAD4     11952       2    1905    2056    2071    19041.701666        
CQUAD4     11953       2    1904    2071    2070    19031.943701        
CQUAD4     11954       2    1990    1991    2072    2040-178.168        
CQUAD4     11955       2    1991    1992    2068    2072 -177.86        
CQUAD4     11956       2    2058    2038    2039    20735.089533        
CQUAD4     11957       2    2073    2039    2040    20723.236034        
CQUAD4     11958       2    2057    2058    2073    20695.317938        
CQUAD4     11959       2    2069    2073    2072    20684.010329        
CQUAD4     11960       2    2090    2088    2087    2092 176.386        
CQUAD4     11961       2    2092    2087    2083    2082176.1081        
CQUAD4     11962       2    2091    2090    2092    2093 176.349        
CQUAD4     11963       2    2093    2092    2082    2081176.1992        
CQUAD4     11964       2    2075    2091    2093    2076176.4378        
CQUAD4     11965       2    2076    2093    2081    2077176.1547        
$ ... 534 like lines cut
CTRIA3     12500       2    2562    2539    2560-20.4975                
CQUAD4     12501       2    2551    2552    2562    2559-5.56669        
CQUAD4     12502       2    2559    2562    2560    2558-2.82533        
CQUAD4     12503       2    2573    2570    2569    2575179.4987        
CQUAD4     12504       2    2575    2569    2568    2576179.2062        
CQUAD4     12505       2    2576    2568    2565    2564178.9053        
CQUAD4     12506       2    2342    2574    2577    2343179.5547        
CQUAD4     12507       2    2574    2573    2575    2577179.5126        
CQUAD4     12508       2    2563    2345    2344    2578 -1.3478        
CQUAD4     12509       2    2578    2344    2343    2577 -1.0514        
CQUAD4     12510       2    2564    2563    2578    2576-1.33228        
CQUAD4     12511       2    2576    2578    2577    2575-1.03496        
CQUAD4     12512       2    8626    8625    2572    2579-179.728        
CQUAD4     12513       2    2579    2572    2571    2580-179.953        
CQUAD4     12514       2    2580    2571    2570    2573179.7701        
CQUAD4     12515       2    8628    8627    2581    2340-179.726        
CQUAD4     12516       2    8627    8626    2579    2581-179.729        
CQUAD4     12517       2    2574    2342    2341    2582-.428275        
CQUAD4     12518       2    2582    2341    2340    2581-.163861        
CQUAD4     12519       2    2573    2574    2582    2580-.470464        
CQUAD4     12520       2    2580    2582    2581    2579-.214544        
$ ... 314 like lines cut
CTRIA3     12835       2    4015    2862    4016-169.411                
CQUAD4     12836       2    2862    4015    4014    28619.624763        
CQUAD4     12837       2    4016    2862    2867    4017-105.614        
CQUAD4     12838       2    4013    2863    2861    4014-163.245        
CQUAD4     12839       2    2865    4019    4018    286634.24732        
CQUAD4     12840       2    2867    2866    4018    4017144.1149        
CTRIA3     12841       2    2864    2862    286175.77006                
CQUAD4     12842       2    4020    4019    2865    2871-34.6099        
CTRIA3     12843       2    2869    4022    4021102.1305                
CQUAD4     12844       2    2863    4013    4012    286817.48642        
CQUAD4     12845       2    2869    4021    4020    287113.68641        
CQUAD4     12846       2    2863    2872    2864    2861174.2244        
CQUAD4     12847       2    2867    2862    2864    2873-28.5327        
CQUAD4     12848       2    4023    4022    2869    2870-26.2973        
CTRIA3     12849       2    2874    2863    286869.39469                
CQUAD4     12850       2    2868    4012    4011    28759.497344        
CTRIA3     12851       2    2879    2866    286789.86297                
CQUAD4     12852       2    4023    2870    2876    4024  -88.65        
CQUAD4     12853       2    2871    2877    2870    2869162.8918        
CQUAD4     12854       2    2878    2865    2866    288231.10527        
CQUAD4     12855       2    2865    2878    2880    2871-148.712        
CQUAD4     12856       2    2873    2864    2872    2887 -14.675        
CQUAD4     12857       2    2872    2863    2874    2888-6.59947        
CQUAD4     12858       2    2881    4025    4024    287683.34848        
CQUAD4     12859       2    2874    2868    2875    2889 2.51701        
CQUAD4     12860       2    2870    2877    2883    2876-89.4874        
CQUAD4     12861       2    2879    2867    2873    288614.37011        
CQUAD4     12862       2    2875    4011    2860    288416.25126        
CQUAD4     12863       2    2879    2891    2882    2866-168.689        
CQUAD4     12864       2    2871    2880    2885    2877-134.076        
CQUAD4     12865       2    4025    2881    2890    4026   -96.8        
CQUAD4     12866       2    2892    2881    2876    288382.19283        
CQUAD4     12867       2    2877    2885    2894    2883-113.812        
CQUAD4     12868       2    2884    2860    2859    28996.707423        
CQUAD4     12869       2    2893    2896    2880    2878146.4297        
CQUAD4     12870       2    2889    2875    2884    29012.362259        
CQUAD4     12871       2    2886    2873    2887    29033.484046        
$ ... 14 like lines cut
CTRIA3     12886       2    2900    2895    2909-36.7381                
CQUAD4     12887       2    2905    2889    2901    2917-1.95366        
CTRIA3     12888       2    2913    2896    289378.76332                
CQUAD4     12889       2    2902    2886    2903    29187.611581        
CQUAD4     12890       2    2906    2891    2902    291213.87632        
CQUAD4     12891       2    2903    2887    2904    2920-1.43506        
CQUAD4     12892       2    2892    2908    2914    2898-100.063        
CQUAD4     12893       2    2904    2888    2905    2922 -3.0424        
CQUAD4     12894       2    4028    2900    2840    4029-94.4434        
CQUAD4     12895       2    2919    2913    2893    2897129.6733        
CTRIA3     12896       2    2897    2906    2919-72.8989                
CQUAD4     12897       2    2895    2910    2921    2909-91.3675        
CQUAD4     12898       2    2900    2909    2841    2840-93.0189        
CQUAD4     12899       2    2923    2908    2894    291177.77007        
CQUAD4     12900       2    2896    2913    2924    2907-101.245        
CQUAD4     12901       2    2898    2914    2925    2910-96.6086        
CQUAD4     12902       2    2919    2906    2912    2926-7.55601        
CQUAD4     12903       2    2915    2858    2857    29303.744857        
CQUAD4     12904       2    2915    2933    2916    2899-178.121        
CQUAD4     12905       2    2902    2918    2936    2912-98.1252        
CQUAD4     12906       2    2916    2934    2917    2901-179.057        
CQUAD4     12907       2    2918    2903    2920    29283.625114        
CQUAD4     12908       2    2907    2924    2927    2911 -106.74        
CQUAD4     12909       2    2909    2921    2842    2841-89.1564        
CQUAD4     12910       2    2922    2905    2917    2937-2.01987        
CQUAD4     12911       2    2908    2923    2932    2914-102.236        
CQUAD4     12912       2    2920    2904    2922    2938-4.00568        
CQUAD4     12913       2    2910    2925    2931    2921-94.4436        
CTRIA3     12914       2    2929    2913    291973.89616                
CTRIA3     12915       2    2912    2936    2926-110.036                
CQUAD4     12916       2    2939    2923    2911    292762.11475        
CQUAD4     12917       2    2935    2925    2914    293283.26286        
CQUAD4     12918       2    2929    2919    2926    2940 6.64337        
CQUAD4     12919       2    2945    2924    2913    292977.07423        
CTRIA3     12920       2    2920    2938    2928-114.551                
CQUAD4     12921       2    2921    2931    2843    2842-92.6995        
CTRIA3     12922       2    2923    2939    2932-117.886                
CQUAD4     12923       2    2936    2918    2928    2941.7155439        
CQUAD4     12924       2    2930    2857    8652    86513.432519        
CQUAD4     12925       2    2933    2915    2930    29472.167097        
CQUAD4     12926       2    2933    2948    2934    2916-178.712        
CQUAD4     12927       2    2925    2935    2943    2931-96.7325        
CQUAD4     12928       2    2937    2917    2934    2949-1.47969        
CQUAD4     12929       2    2927    2924    2945    2944-23.3943        
CQUAD4     12930       2    2938    2922    2937    2950 -4.0851        
CTRIA3     12931       2    2935    2932    2942-32.3093                
CQUAD4     12932       2    2940    2926    2936    29465.552457        
CQUAD4     12933       2    2938    2954    2941    2928-174.516        
CQUAD4     12934       2    2939    2951    2942    2932-171.475        
CQUAD4     12935       2    2953    2939    2927    2944 85.7587        
CQUAD4     12936       2    2945    2929    2940    2952-8.97642        
CQUAD4     12937       2    2931    2943    2844    2843-92.5673        
CQUAD4     12938       2    2935    2942    2955    2943-87.5676        
CQUAD4     12939       2    2946    2936    2941    29576.770941        
CQUAD4     12940       2    2947    2930    8651    8650.8076255        
CTRIA3     12941       2    2944    2945    2956-33.2848                
CQUAD4     12942       2    2948    2933    2947    2959.8758421        
CQUAD4     12943       2    2949    2934    2948    2960-1.04265        
CQUAD4     12944       2    2952    2940    2946    2958 .444856        
CQUAD4     12945       2    2949    2963    2950    2937-179.162        
CQUAD4     12946       2    2954    2938    2950    29655.485134        
CQUAD4     12947       2    2939    2953    2964    2951-94.2485        
CQUAD4     12948       2    2942    2951    2962    2955-79.9195        
CQUAD4     12949       2    2943    2955    2845    2844-89.0044        
CQUAD4     12950       2    2956    2945    2952    296119.70488        
CQUAD4     12951       2    2957    2941    2954    29663.788724        
CQUAD4     12952       2    2967    2953    2944    295688.90479        
CQUAD4     12953       2    2958    2946    2957    29682.268446        
CQUAD4     12954       2    2961    2952    2958    2969 6.83916        
CQUAD4     12955       2    2959    2947    8650    8649.3875569        
CQUAD4     12956       2    2960    2948    2959    2972.5221461        
CQUAD4     12957       2    2960    2973    2963    2949-179.149        
CQUAD4     12958       2    2955    2962    2846    2845-86.5415        
CQUAD4     12959       2    2951    2964    2971    2962-90.1174        
CQUAD4     12960       2    2963    2975    2965    2950-178.443        
CQUAD4     12961       2    2967    2956    2961    2970-2.43679        
$ ... 111 like lines cut
CTRIA3     13073       2    7523    3050    7522-28.3036                
CQUAD4     13074       2    7523    7524    4031    305088.12336        
CQUAD4     13075       2    4031    4030    3048    3050-14.0147        
CQUAD4     13076       2    7522    3050    3051    752114.89906        
CTRIA3     13077       2    3048    3051    3050-158.424                
CQUAD4     13078       2    3045    7519    7520    3052-178.822        
CQUAD4     13079       2    3052    7520    7521    3051-175.158        
CQUAD4     13080       2    3044    3045    3052    3049-177.911        
CQUAD4     13081       2    3049    3052    3051    3048-171.454        
CQUAD4     13082       2    3061    3058    3057    3063.2663987        
CQUAD4     13083       2    3063    3057    3056    3064.1278514        
CQUAD4     13084       2    3064    3056    3055    3054-.114925        
CQUAD4     13085       2    7503    3062    3065    7502.2572848        
CQUAD4     13086       2    3062    3061    3063    3065.2593611        
CQUAD4     13087       2    3053    7500    7501    3066179.9048        
CQUAD4     13088       2    3066    7501    7502    3065-179.779        
CQUAD4     13089       2    3054    3053    3066    3064179.9118        
CQUAD4     13090       2    3064    3066    3065    3063-179.862        
CQUAD4     13091       2    8654    8639    3060    3067.3708485        
CQUAD4     13092       2    3067    3060    3059    3068.3568361        
CQUAD4     13093       2    3068    3059    3058    3061 .314265        
CQUAD4     13094       2    8629    8653    3069    7505.3745936        
CQUAD4     13095       2    8653    8654    3067    3069.3497549        
CQUAD4     13096       2    3062    7503    7504    3070-179.661        
CQUAD4     13097       2    3070    7504    7505    3069-179.599        
$ ... 162 like lines cut
CTRIA3     13260       3    4138    4020    4021-39.5473                
CQUAD4     13261       3    4019    4140    4137    4018133.9619        
CQUAD4     13262       3    4019    4020    4138    4140-147.307        
CQUAD4     13263       3    4144    4013    4014    4136-44.3813        
CQUAD4     13264       3    4139    4138    4021    402212.69108        
CQUAD4     13265       3    4139    4022    4023    4142-83.1441        
CQUAD4     13266       3    4144    4143    4012    401325.95909        
CTRIA3     13267       3    4012    4143    4011125.6296                
CQUAD4     13268       3    4142    4023    4024    4141-84.9279        
CQUAD4     13269       3    4025    4147    4141    402489.22393        
CQUAD4     13270       3    4146    4134    4133    4145-31.7264        
CQUAD4     13271       3    4148    4135    4134    4146-26.0971        
CQUAD4     13272       3    4011    4143    4151    4128-158.296        
CQUAD4     13273       3    4145    4133    4137    4155-37.1087        
CTRIA3     13274       3    4152    4138    4139-31.7966                
CQUAD4     13275       3    4154    4136    4135    4148 -22.392        
CTRIA3     13276       3    4155    4137    4140 -38.257                
CQUAD4     13277       3    4147    4025    4026    4150-91.5601        
CTRIA3     13278       3    4149    4142    4141-31.3288                
CQUAD4     13279       3    4153    4139    4142    4149-24.4702        
CQUAD4     13280       3    4138    4152    4165    4140148.0937        
CQUAD4     13281       3    4162    4144    4136    4154-16.2133        
CQUAD4     13282       3    4027    4156    4150    402691.21408        
CQUAD4     13283       3    4158    4151    4143    414412.91759        
CQUAD4     13284       3    4147    4159    4149    414180.70946        
CTRIA3     13285       3    4145    4160    4146 103.314                
CQUAD4     13286       3    4151    4163    4129    412886.72709        
CTRIA3     13287       3    4157    4147    4150-17.5639                
CQUAD4     13288       3    4152    4139    4153    4167-97.1445        
CQUAD4     13289       3    4156    4027    4028    4161-90.1053        
CQUAD4     13290       3    4164    4148    4146    4160-16.4153        
CQUAD4     13291       3    4140    4165    4176    4155157.5837        
CQUAD4     13292       3    4155    4174    4160    414595.46672        
CQUAD4     13293       3    4158    4144    4162    4175 -81.415        
CQUAD4     13294       3    4159    4173    4153    414985.11176        
CQUAD4     13295       3    4157    4170    4159    414781.93178        
CQUAD4     13296       3    4156    4169    4157    415085.00652        
CQUAD4     13297       3    4029    4127    4161    402889.57273        
CQUAD4     13298       3    4166    4130    4129    41636.050881        
CQUAD4     13299       3    4172    4154    4148    4164-16.4624        
CQUAD4     13300       3    4151    4158    4171    4163-167.445        
CTRIA3     13301       3    4168    4156    4161-17.4068                
CQUAD4     13302       3    4165    4152    4167    4178-105.957        
CQUAD4     13303       3    4181    4162    4154    4172-16.2381        
CQUAD4     13304       3    4184    4131    4130    41665.102184        
CQUAD4     13305       3    4160    4174    4180    4164-178.569        
CQUAD4     13306       3    4168    4182    4169    415685.26727        
CQUAD4     13307       3    4177    4166    4163    4171-5.01779        
CQUAD4     13308       3    4127    4126    4168    416189.57273        
CQUAD4     13309       3    4169    4183    4170    415787.25804        
CQUAD4     13310       3    4167    4153    4173    4186-100.778        
CQUAD4     13311       3    4173    4159    4170    4179-93.8706        
CQUAD4     13312       3    4171    4158    4175    4185-90.0013        
CQUAD4     13313       3    4176    4187    4174    415588.53431        
CTRIA3     13314       3    4177    4184    416655.50061                
CQUAD4     13315       3    4175    4162    4181    4190-93.5165        
CQUAD4     13316       3    4172    4164    4180    4192-110.413        
CQUAD4     13317       3    4176    4165    4178    4191-94.0246        
CQUAD4     13318       3    4188    4132    4131    41843.147649        
CTRIA3     13319       3    4189    4173    4179-30.4556                
CQUAD4     13320       3    4193    4177    4171    4185-17.9675        
CQUAD4     13321       3    4126    4125    4182    416889.73483        
CQUAD4     13322       3    4183    4195    4179    417088.90121        
CQUAD4     13323       3    4182    4194    4183    416989.01806        
CQUAD4     13324       3    4178    4167    4186    4196-100.055        
CQUAD4     13325       3    4174    4187    4200    4180168.0822        
CQUAD4     13326       3    4181    4172    4192    4197-108.644        
CQUAD4     13327       3    8667    8668    4132    41883.666855        
CQUAD4     13328       3    4185    4175    4190    4199-93.4363        
CQUAD4     13329       3    4198    4184    4177    4193-28.6086        
CQUAD4     13330       3    4189    4202    4186    417382.53713        
CQUAD4     13331       3    4187    4176    4191    4201-90.7712        
CTRIA3     13332       3    4184    4198    4188151.4311                
CQUAD4     13333       3    4195    4207    4189    417988.38361        
CQUAD4     13334       3    4191    4178    4196    4205-96.3562        
CQUAD4     13335       3    4190    4181    4197    4203-100.491        
CQUAD4     13336       3    4125    4124    4194    418289.83853        
CQUAD4     13337       3    4194    4206    4195    418389.26853        
CQUAD4     13338       3    4192    4180    4200    4209 -106.73        
CQUAD4     13339       3    4204    4193    4185    4199-10.6111        
CQUAD4     13340       3    4198    8666    8667    418887.59416        
CQUAD4     13341       3    4202    4210    4196    4186 82.2352        
CQUAD4     13342       3    4200    4187    4201    4212-97.1247        
CQUAD4     13343       3    4199    4190    4203    4211-97.6619        
CQUAD4     13344       3    4213    4198    4193    4204-5.62861        
CQUAD4     13345       3    4197    4192    4209    4208-112.486        
CQUAD4     13346       3    4201    4191    4205    4214-94.9653        
CQUAD4     13347       3    4207    4217    4202    418990.84856        
CQUAD4     13348       3    4124    4123    4206    419489.90714        
CQUAD4     13349       3    4206    4216    4207    419589.15283        
CQUAD4     13350       3    4208    4215    4203    419778.56849        
CQUAD4     13351       3    4210    4220    4205    4196 82.4519        
CQUAD4     13352       3    4204    4199    4211    4218-100.696        
CQUAD4     13353       3    4198    4213    8665    8666174.7641        
CQUAD4     13354       3    4209    4200    4212    4221-100.861        
CTRIA3     13355       3    4208    4209    4219-123.351                
CQUAD4     13356       3    4212    4201    4214    4224-97.5138        
CQUAD4     13357       3    4215    4222    4211    4203  81.088        
CQUAD4     13358       3    4210    4202    4217    4226-97.4002        
CQUAD4     13359       3    4213    4204    4218    4223-101.751        
CQUAD4     13360       3    4217    4207    4216    4225  -88.97        
CQUAD4     13361       3    4123    4122    4216    420689.93411        
CQUAD4     13362       3    4220    4228    4214    420581.04607        
CQUAD4     13363       3    4219    4227    4215    420882.32897        
CQUAD4     13364       3    4219    4209    4221    4229-78.4163        
CQUAD4     13365       3    4222    4230    4218    421178.29934        
CQUAD4     13366       3    8665    4213    4223    8664-93.8515        
CQUAD4     13367       3    4221    4212    4224    4232 -96.805        
CQUAD4     13368       3    4220    4210    4226    4233-97.2714        
CTRIA3     13369       3    4231    4217    4225-28.8515                
CTRIA3     13370       3    4218    4230    4223145.4023                
CQUAD4     13371       3    4227    4234    4222    4215 82.0565        
CQUAD4     13372       3    4228    4235    4224    421478.54283        
CQUAD4     13373       3    4122    4121    4225    421689.94213        
CQUAD4     13374       3    4226    4217    4231    4237-99.2159        
CQUAD4     13375       3    4227    4219    4229    4236-97.4569        
CQUAD4     13376       3    4230    8663    8664    422387.65755        
CQUAD4     13377       3    4228    4220    4233    4239-98.7256        
CQUAD4     13378       3    4229    4221    4232    4238-89.5208        
CQUAD4     13379       3    4234    4240    4230    422282.51893        
CQUAD4     13380       3    4235    4241    4232    422481.09539        
CQUAD4     13381       3    4121    4120    4231    422589.94244        
CQUAD4     13382       3    4236    4242    4234    422784.04616        
CQUAD4     13383       3    4233    4226    4237    4243-95.7526        
CQUAD4     13384       3    4235    4228    4239    4245-101.289        
CQUAD4     13385       3    4236    4229    4238    4244-93.9971        
CQUAD4     13386       3    8663    4230    4240    8662-92.3092        
CQUAD4     13387       3    4241    4246    4238    423284.75843        
CQUAD4     13388       3    4120    4119    4237    4231 89.9318        
CQUAD4     13389       3    4240    4234    4242    4247-97.3356        
CQUAD4     13390       3    4239    4233    4243    4250-99.2467        
$ ... 13 like lines cut
CTRIA3     13404       3    4252    4250    4258-123.265                
CQUAD4     13405       3    4253    4248    4255    4259-95.0055        
CQUAD4     13406       3    4256    4260    4254    424987.33453        
CQUAD4     13407       3    4256    4251    4257    4262-93.0253        
CQUAD4     13408       3    4255    4252    4258    4261-97.4204        
CQUAD4     13409       3    4250    4117    4116    4258173.1277        
CQUAD4     13410       3    4257    4253    4259    4263-93.0239        
CQUAD4     13411       3    4260    8659    8660    4254 88.1629        
CQUAD4     13412       3    4259    4255    4261    4264-93.8995        
CQUAD4     13413       3    4262    4265    4260    425688.17922        
CQUAD4     13414       3    4262    4257    4263    4266-92.2155        
CQUAD4     13415       3    4261    4258    4116    4115-93.4219        
CQUAD4     13416       3    4263    4259    4264    4267-92.2201        
CQUAD4     13417       3    4265    8658    8659    426088.93006        
CQUAD4     13418       3    4264    4261    4115    4114-92.2339        
CQUAD4     13419       3    4266    4268    4265    426288.79222        
CQUAD4     13420       3    4266    4263    4267    4269 -91.493        
CQUAD4     13421       3    4267    4264    4114    4113-91.2058        
CQUAD4     13422       3    4268    8657    8658    426589.48693        
CQUAD4     13423       3    4269    4270    4268    426689.43823        
CQUAD4     13424       3    4269    4267    4113    4112-90.7861        
$ ... 89 like lines cut
CTRIA3     13514       7    7563    7564    7562                        
CQUAD4     13515       7    7752    7540    7564    7753                
CQUAD4     13516       7    7753    7564    7557    7754                
CQUAD4     13517       7    7565    7548    7547    7567                
CQUAD4     13518       7    7567    7547    7546    7568                
CQUAD4     13519       7    7568    7546    7511    7512                
CQUAD4     13520       7    7566    7565    7567    7569                
CQUAD4     13521       7    7569    7567    7568    7570                
CQUAD4     13522       7    7570    7568    7512    7513                
CQUAD4     13523       7    7553    7566    7569    7552                
CQUAD4     13524       7    7552    7569    7570    7551                
CQUAD4     13525       7    7551    7570    7513    7514                
CQUAD4     13526       7    7536    7535    7550    7571                
CQUAD4     13527       7    7571    7550    7549    7572                
CQUAD4     13528       7    7572    7549    7548    7565                
CQUAD4     13529       7    7537    7536    7571    7573                
CQUAD4     13530       7    7573    7571    7572    7574                
CQUAD4     13531       7    7574    7572    7565    7566                
CQUAD4     13532       7    7538    7537    7573    7555                
CQUAD4     13533       7    7555    7573    7574    7554                
CQUAD4     13534       7    7554    7574    7566    7553                
$ ... 11 like lines cut
CTRIA3     13546       7    7585    7578    7586                        
CQUAD4     13547       7    7534    7533    7585    7587                
CQUAD4     13548       7    7587    7585    7586    7588                
CQUAD4     13549       7    7588    7586    7579    7580                
CQUAD4     13550       7    7535    7534    7587    7550                
CQUAD4     13551       7    7550    7587    7588    7549                
CQUAD4     13552       7    7549    7588    7580    7548                
CQUAD4     13553       7    7507    7508    7575    7589                
CQUAD4     13554       7    7589    7575    7576    7590                
CQUAD4     13555       7    7590    7576    7577    7591                
CQUAD4     13556       7    7591    7577    7578    7592                
CQUAD4     13557       7    7592    7578    7532    7531                
CQUAD4     13558       7    7506    7507    7589    7593                
CQUAD4     13559       7    7593    7589    7590    7594                
CQUAD4     13560       7    7594    7590    7591    7595                
CQUAD4     13561       7    7595    7591    7592    7596                
CQUAD4     13562       7    7596    7592    7531    7530                
CQUAD4     13563       7    8629    7506    7593    8672                
CQUAD4     13564       7    8672    7593    7594    8673                
CQUAD4     13565       7    8673    7594    7595    8674                
CTRIA3     13566       7    7596    8674    7595                        
CQUAD4     13567       7    7596    7530    8669    8674                
CTRIA3     13568       7    7522    7523    7597                        
CQUAD4     13569       7    7597    7523    7524    7545                
CQUAD4     13570       7    7597    7598    7521    7522                
CQUAD4     13571       7    7521    7598    7599    7520                
CTRIA3     13572       7    7597    7545    7544                        
CTRIA3     13573       7    7597    7544    7598                        
CQUAD4     13574       7    7520    7599    7601    7519                
CTRIA3     13575       7    7598    7600    7599                        
CTRIA3     13576       7    7600    7598    7544                        
CQUAD4     13577       7    7519    7601    7602    7518                
CQUAD4     13578       7    7600    7603    7601    7599                
CTRIA3     13579       7    7600    7544    7543                        
CQUAD4     13580       7    7604    7517    7518    7602                
CQUAD4     13581       7    7601    7603    7605    7602                
CQUAD4     13582       7    7542    7603    7600    7543                
CQUAD4     13583       7    7756    7742    7517    7604                
CTRIA3     13584       7    7605    7604    7602                        
CTRIA3     13585       7    7604    7755    7756                        
CTRIA3     13586       7    7605    7603    7606                        
CQUAD4     13587       7    7605    7754    7755    7604                
CQUAD4     13588       7    7603    7542    7541    7606                
CQUAD4     13589       7    7605    7606    7753    7754                
CQUAD4     13590       7    7606    7541    7752    7753                
CQUAD4     13591       3    7765    7766    4331    43252.587047        
CQUAD4     13592       3    7766    7752    7541    43312.550851        
CQUAD4     13593       3    4330    4327    4326    4332-172.169        
CQUAD4     13594       3    4332    4326    4325    4331-173.842        
CQUAD4     13595       3    7543    4330    4332    7542-172.129        
CQUAD4     13596       3    7542    4332    4331    7541 -173.83        
CQUAD4     13597       3    4327    4330    4333    43287.341896        
CQUAD4     13598       3    4330    7543    7544    43337.343415        
CQUAD4     13599       3    4002    4003    4329    4334-174.465        
CQUAD4     13600       3    4334    4329    4328    4333-170.044        
CQUAD4     13601       3    7524    4002    4334    7545-174.452        
CQUAD4     13602       3    7545    4334    4333    7544-170.871        
CQUAD4     13603       3    4335    4322    4321    4337-172.851        
CQUAD4     13604       3    4337    4321    4315    4338-174.231        
CQUAD4     13605       3    4338    4315    7762    7763-175.683        
CQUAD4     13606       3    4327    4336    4339    4326  -172.2        
$ ... 236 like lines cut
CTRIA3     13843       9    8691    8698    8692                        
CQUAD4     13844       9    8647    8648    8690    8702                
CQUAD4     13845       9    8702    8690    8691    8703                
CQUAD4     13846       9    8703    8691    8692    8704                
CQUAD4     13847       9    8704    8692    8664    8663                
CQUAD4     13848       9    8646    8647    8702    8699                
CQUAD4     13849       9    8699    8702    8703    8700                
CQUAD4     13850       9    8700    8703    8704    8701                
CQUAD4     13851       9    8701    8704    8663    8662                
CQUAD4     13852       9    8645    8646    8699    8705                
CQUAD4     13853       9    8705    8699    8700    8706                
CQUAD4     13854       9    8706    8700    8701    8707                
CQUAD4     13855       9    8707    8701    8662    8661                
CQUAD4     13856       9    8644    8645    8705    8687                
CQUAD4     13857       9    8687    8705    8706    8688                
CQUAD4     13858       9    8688    8706    8707    8689                
CQUAD4     13859       9    8689    8707    8661    8660                
CQUAD4     13860       9    8643    8644    8687    8714                
CQUAD4     13861       9    8714    8687    8688    8715                
CQUAD4     13862       9    8715    8688    8689    8716                
CQUAD4     13863       9    8716    8689    8660    8659                
$ ... 964 like lines cut
CTRIA3     14828       5    7257    7258    7281                        
CQUAD4     14829       5    7281    7258    7259    7264                
CQUAD4     14830       5    7257    7281    7282    7256                
CQUAD4     14831       5    7256    7282    7283    7255                
CQUAD4     14832       5    7281    7264    7263    7282                
CQUAD4     14833       5    7285    7254    7255    7283                
CTRIA3     14834       5    7282    7284    7283                        
CQUAD4     14835       5    7263    7262    7284    7282                
CQUAD4     14836       5    7254    7285    7286    7253                
CQUAD4     14837       5    7287    7285    7283    7284                
CQUAD4     14838       5    7288    7252    7253    7286                
CQUAD4     14839       5    7285    7287    7289    7286                
CQUAD4     14840       5    7261    7287    7284    7262                
CQUAD4     14841       5    7806    7703    7252    7288                
CTRIA3     14842       5    7286    7289    7288                        
CTRIA3     14843       5    7288    7807    7806                        
CTRIA3     14844       5    7289    7287    7290                        
CQUAD4     14845       5    7288    7289    7808    7807                
CQUAD4     14846       5    7287    7261    7260    7290                
CQUAD4     14847       5    7289    7290    7809    7808                
CTRIA3     14848       5    7809    7290    7810                        
CQUAD4     14849       5    7290    7260    7790    7810                
CQUAD4     14850       5    7301    7298    7297    7303                
CQUAD4     14851       5    7303    7297    7296    7304                
CQUAD4     14852       5    7304    7296    7249    7250                
CQUAD4     14853       5    7808    7302    7305    7807                
CQUAD4     14854       5    7302    7301    7303    7305                
CQUAD4     14855       5    7251    7703    7806    7306                
CQUAD4     14856       5    7306    7806    7807    7305                
CQUAD4     14857       5    7250    7251    7306    7304                
CQUAD4     14858       5    7304    7306    7305    7303                
CQUAD4     14859       5    7274    7273    7300    7307                
CQUAD4     14860       5    7307    7300    7299    7308                
CQUAD4     14861       5    7308    7299    7298    7301                
CQUAD4     14862       5    7790    7275    7309    7810                
CQUAD4     14863       5    7275    7274    7307    7309                
CQUAD4     14864       5    7302    7808    7809    7310                
CQUAD4     14865       5    7310    7809    7810    7309                
CQUAD4     14866       5    7301    7302    7310    7308                
CQUAD4     14867       5    7308    7310    7309    7307                
CQUAD4     14868       5    7311    7293    7292    7313                
$ ... 19 like lines cut
CTRIA3     14888       5    7330    7321    7331                        
CQUAD4     14889       5    7326    7325    7330    7328                
CQUAD4     14890       5    7328    7330    7331    7329                
CQUAD4     14891       5    7329    7331    7243    7244                
CQUAD4     14892       5    7327    7326    7328    7332                
CQUAD4     14893       5    7332    7328    7329    7333                
CQUAD4     14894       5    7333    7329    7244    7245                
CQUAD4     14895       5    7293    7327    7332    7292                
CQUAD4     14896       5    7292    7332    7333    7291                
CQUAD4     14897       5    7291    7333    7245    7246                
CQUAD4     14898       5    7268    7267    7324    7334                
CQUAD4     14899       5    7335    7334    7324    7336                
CTRIA3     14900       5    7336    7324    7323                        
CQUAD4     14901       5    7335    7336    7325    7326                
CQUAD4     14902       5    7336    7323    7322    7325                
CQUAD4     14903       5    7270    7269    7337    7295                
CQUAD4     14904       5    7269    7268    7334    7337                
CQUAD4     14905       5    7327    7293    7294    7338                
CQUAD4     14906       5    7338    7294    7295    7337                
CQUAD4     14907       5    7326    7327    7338    7335                
CQUAD4     14908       5    7335    7338    7337    7334                
CQUAD4     14909       5    7241    7242    7321    7339                
CQUAD4     14910       5    7339    7321    7322    7340                
CQUAD4     14911       5    7340    7322    7323    7341                
CQUAD4     14912       5    7341    7323    7324    7342                
CQUAD4     14913       5    7342    7324    7267    7266                
CQUAD4     14914       5    7343    8769    8768    7344                
CQUAD4     14915       5    7344    8768    8590    7240                
CQUAD4     14916       5    7340    7343    7344    7339                
CQUAD4     14917       5    7339    7344    7240    7241                
CQUAD4     14918       5    7265    8752    8770    7345                
CQUAD4     14919       5    8770    8769    7343    7346                
CTRIA3     14920       5    7345    8770    7346                        
CQUAD4     14921       5    7266    7265    7345    7342                
CQUAD4     14922       5    7342    7345    7346    7341                
CQUAD4     14923       5    7341    7346    7343    7340                
CQUAD4     14924       8    7828    7827    7832    7831                
CQUAD4     14925       8    7827    7826    7833    7832                
CQUAD4     14926       8    7826    7788    7789    7833                
CQUAD4     14927       8    7831    7832    7809    7808                
CQUAD4     14928       8    7832    7833    7810    7809                
CQUAD4     14929       8    7833    7789    7790    7810                
CQUAD4     14930       8    7719    7830    7834    7718                
CQUAD4     14931       8    7830    7829    7835    7834                
CQUAD4     14932       8    7829    7828    7831    7835                
CQUAD4     14933       8    7718    7834    7806    7703                
CQUAD4     14934       8    7834    7835    7807    7806                
CQUAD4     14935       8    7835    7831    7808    7807                
CQUAD4     14936       8    7823    7822    7837    7836                
CQUAD4     14937       8    7822    7821    7838    7837                
CQUAD4     14938       8    7821    7786    7787    7838                
CQUAD4     14939       8    7836    7837    7827    7828                
CQUAD4     14940       8    7837    7838    7826    7827                
$ ... 147 like lines cut
CTRIA3     15088       8    7951    7936    7952                        
CQUAD4     15089       8    7950    7951    7941    7942                
CQUAD4     15090       8    7951    7952    7940    7941                
CQUAD4     15091       8    7952    7761    7760    7940                
CQUAD4     15092       8    7747    7939    7953    7748                
CQUAD4     15093       8    7939    7938    7954    7953                
CQUAD4     15094       8    7938    7937    7950    7954                
CQUAD4     15095       8    7748    7953    7944    7749                
CQUAD4     15096       8    7953    7954    7943    7944                
CQUAD4     15097       8    7954    7950    7942    7943                
CQUAD4     15098       8    7956    7955    7960    7959                
CQUAD4     15099       8    7955    7764    7763    7960                
CQUAD4     15100       8    7959    7960    7936    7937                
CQUAD4     15101       8    7960    7763    7762    7936                
CQUAD4     15102       8    7745    7958    7961    7746                
CQUAD4     15103       8    7958    7957    7962    7961                
CQUAD4     15104       8    7957    7956    7959    7962                
CQUAD4     15105       8    7746    7961    7939    7747                
CQUAD4     15106       8    7961    7962    7938    7939                
CQUAD4     15107       8    7962    7959    7937    7938                
CQUAD4     15108       8    7764    7955    7963    7765                
$ ... 1738 like lines cut
CTRIA3     16847       6    7382    7383    7406                        
CQUAD4     16848       6    7406    7383    7384    7405                
CQUAD4     16849       6    7407    7381    7382    7406                
CTRIA3     16850       6    7407    7406    7408                        
CQUAD4     16851       6    7381    7407    7409    7380                
CQUAD4     16852       6    7406    7405    7404    7408                
CQUAD4     16853       6    7408    7411    7409    7407                
CQUAD4     16854       6    7410    7379    7380    7409                
CQUAD4     16855       6    7378    7379    7410    7412                
CQUAD4     16856       6    7404    7403    7411    7408                
CQUAD4     16857       6    7414    7410    7409    7411                
CQUAD4     16858       6    7378    7412    7415    7377                
CTRIA3     16859       6    7412    7410    7413                        
CQUAD4     16860       6    7410    7414    7417    7413                
CQUAD4     16861       6    7402    7414    7411    7403                
CQUAD4     16862       6    7412    7413    7416    7415                
CQUAD4     16863       6    7377    7415    8023    7651                
CQUAD4     16864       6    8023    7415    7416    8024                
CQUAD4     16865       6    7418    7416    7413    7417                
CQUAD4     16866       6    7414    7402    7401    7417                
CQUAD4     16867       6    8025    8024    7416    7418                
CTRIA3     16868       6    8025    7418    8026                        
CQUAD4     16869       6    7417    8027    8026    7418                
CQUAD4     16870       6    7417    7401    7971    8027                
CQUAD4     16871       6    7430    7429    7434    7432                
CQUAD4     16872       6    7429    7426    7425    7434                
CQUAD4     16873       6    7374    7375    7433    7435                
CQUAD4     16874       6    7435    7433    7432    7434                
CQUAD4     16875       6    7373    7374    7435    7424                
CQUAD4     16876       6    7424    7435    7434    7425                
CQUAD4     16877       6    8025    7431    7436    8024                
CQUAD4     16878       6    7431    7430    7432    7436                
CQUAD4     16879       6    7376    7651    8023    7437                
CQUAD4     16880       6    7437    8023    8024    7436                
CQUAD4     16881       6    7375    7376    7437    7433                
CQUAD4     16882       6    7433    7437    7436    7432                
CQUAD4     16883       6    7400    7399    7440    7438                
CQUAD4     16884       6    7399    7398    7428    7440                
CQUAD4     16885       6    7429    7430    7439    7441                
CQUAD4     16886       6    7441    7439    7438    7440                
CQUAD4     16887       6    7426    7429    7441    7427                
CQUAD4     16888       6    7427    7441    7440    7428                
CQUAD4     16889       6    7971    7400    7438    8027                
CQUAD4     16890       6    8026    8027    7438    7442                
CTRIA3     16891       6    7442    7438    7439                        
CQUAD4     16892       6    8026    7442    7431    8025                
CQUAD4     16893       6    7442    7439    7430    7431                
CQUAD4     16894       6    7443    7421    7420    7445                
CQUAD4     16895       6    7445    7420    7419    7446                
CQUAD4     16896       6    7446    7419    7370    7371                
CQUAD4     16897       6    7426    7444    7447    7425                
CQUAD4     16898       6    7444    7443    7445    7447                
CQUAD4     16899       6    7372    7373    7424    7448                
CQUAD4     16900       6    7448    7424    7425    7447                
CQUAD4     16901       6    7371    7372    7448    7446                
CQUAD4     16902       6    7446    7448    7447    7445                
CQUAD4     16903       6    7396    7395    7423    7449                
CQUAD4     16904       6    7449    7423    7422    7450                
CQUAD4     16905       6    7450    7422    7421    7443                
CQUAD4     16906       6    7398    7397    7451    7428                
CQUAD4     16907       6    7397    7396    7449    7451                
CQUAD4     16908       6    7444    7426    7427    7452                
CQUAD4     16909       6    7452    7427    7428    7451                
CQUAD4     16910       6    7443    7444    7452    7450                
CQUAD4     16911       6    7450    7452    7451    7449                
CQUAD4     16912       6    7457    7454    7453    7462                
CQUAD4     16913       6    7453    7366    7367    7463                
CTRIA3     16914       6    7462    7453    7463                        
CQUAD4     16915       6    7458    7457    7462    7460                
CQUAD4     16916       6    7460    7462    7463    7461                
CQUAD4     16917       6    7461    7463    7367    7368                
CQUAD4     16918       6    7421    7459    7464    7420                
CQUAD4     16919       6    7459    7458    7460    7464                
CQUAD4     16920       6    7369    7370    7419    7465                
CQUAD4     16921       6    7465    7419    7420    7464                
CQUAD4     16922       6    7368    7369    7465    7461                
CQUAD4     16923       6    7461    7465    7464    7460                
CQUAD4     16924       6    7393    7392    7456    7466                
CQUAD4     16925       6    7466    7456    7455    7468                
CTRIA3     16926       6    7467    7466    7468                        
CQUAD4     16927       6    7467    7468    7457    7458                
CQUAD4     16928       6    7468    7455    7454    7457                
CQUAD4     16929       6    7395    7394    7469    7423                
CQUAD4     16930       6    7394    7393    7466    7469                
CQUAD4     16931       6    7459    7421    7422    7470                
CQUAD4     16932       6    7470    7422    7423    7469                
CQUAD4     16933       6    7458    7459    7470    7467                
CQUAD4     16934       6    7467    7470    7469    7466                
CQUAD4     16935       6    7475    7472    7471    7476                
CQUAD4     16936       6    7476    7471    7364    7365                
CQUAD4     16937       6    7454    7475    7476    7453                
CQUAD4     16938       6    7453    7476    7365    7366                
CQUAD4     16939       6    7454    7455    7473    7475                
CQUAD4     16940       6    7472    7475    7473    7480                
CQUAD4     16941       6    7473    7455    7456    7474                
CQUAD4     16942       6    7474    7456    7392    7391                
CQUAD4     16943       6    7477    8923    8922    7478                
CQUAD4     16944       6    7478    8922    8538    7363                
CQUAD4     16945       6    7472    7477    7478    7471                
CQUAD4     16946       6    7471    7478    7363    7364                
CQUAD4     16947       6    7390    8870    8924    7479                
CQUAD4     16948       6    8924    8923    7477    7480                
CTRIA3     16949       6    7479    8924    7480                        
CQUAD4     16950       6    7391    7390    7479    7474                
CQUAD4     16951       6    7474    7479    7480    7473                
CTRIA3     16952       6    7472    7480    7477                        
CQUAD4     16953       8    8212    8211    8216    8214                
CQUAD4     16954       8    8211    8208    8207    8216                
CQUAD4     16955       8    7654    7653    8215    8217                
CQUAD4     16956       8    8217    8215    8214    8216                
CQUAD4     16957       8    7655    7654    8217    8206                
CQUAD4     16958       8    8206    8217    8216    8207                
CQUAD4     16959       8    8025    8213    8218    8024                
CQUAD4     16960       8    8213    8212    8214    8218                
CQUAD4     16961       8    7652    7651    8023    8219                
CQUAD4     16962       8    8219    8023    8024    8218                
CQUAD4     16963       8    7653    7652    8219    8215                
CQUAD4     16964       8    8215    8219    8218    8214                
CQUAD4     16965       8    8021    8020    8222    8220                
CQUAD4     16966       8    8020    8019    8210    8222                
CQUAD4     16967       8    8211    8212    8221    8223                
CQUAD4     16968       8    8223    8221    8220    8222                
CQUAD4     16969       8    8208    8211    8223    8209                
CQUAD4     16970       8    8209    8223    8222    8210                
CQUAD4     16971       8    7971    8022    8224    8027                
CQUAD4     16972       8    8022    8021    8220    8224                
$ ... 56 like lines cut
CTRIA3     17029       8    8264    8266    8265                        
CQUAD4     17030       8    8263    8262    8264    8267                
CQUAD4     17031       8    8267    8264    8265    8268                
CQUAD4     17032       8    8268    8265    7665    7664                
CQUAD4     17033       8    8243    8263    8267    8242                
CQUAD4     17034       8    8242    8267    8268    8241                
CQUAD4     17035       8    8241    8268    7664    7663                
CQUAD4     17036       8    8009    8008    8271    8269                
CQUAD4     17037       8    8008    8007    8200    8271                
CQUAD4     17038       8    8261    8262    8270    8272                
CQUAD4     17039       8    8272    8270    8269    8271                
CQUAD4     17040       8    8198    8261    8272    8199                
CQUAD4     17041       8    8199    8272    8271    8200                
CQUAD4     17042       8    8011    8010    8273    8245                
CQUAD4     17043       8    8010    8009    8269    8273                
CQUAD4     17044       8    8263    8243    8244    8274                
CQUAD4     17045       8    8274    8244    8245    8273                
CQUAD4     17046       8    8262    8263    8274    8270                
CQUAD4     17047       8    8270    8274    8273    8269                
CQUAD4     17048       8    8283    8280    8279    8287                
CQUAD4     17049       8    8287    8279    7671    7670                
$ ... 215 like lines cut
CTRIA3     17265       4    7121    7122    7159                        
CQUAD4     17266       4    7159    7122    7123    7158                
CQUAD4     17267       4    7159    7160    7120    7121                
CQUAD4     17268       4    7120    7160    7161    7119                
CTRIA3     17269       4    7159    7158    7157                        
CTRIA3     17270       4    7159    7157    7160                        
CQUAD4     17271       4    7119    7161    7163    7118                
CTRIA3     17272       4    7160    7162    7161                        
CTRIA3     17273       4    7162    7160    7157                        
CQUAD4     17274       4    7118    7163    7164    7117                
CQUAD4     17275       4    7162    7165    7163    7161                
CTRIA3     17276       4    7162    7157    7156                        
CQUAD4     17277       4    7166    7116    7117    7164                
CQUAD4     17278       4    7163    7165    7167    7164                
CQUAD4     17279       4    7155    7165    7162    7156                
CQUAD4     17280       4    8193    7650    7116    7166                
CTRIA3     17281       4    7167    7166    7164                        
CTRIA3     17282       4    7166    8194    8193                        
CTRIA3     17283       4    7167    7165    7168                        
CQUAD4     17284       4    7167    8195    8194    7166                
CQUAD4     17285       4    7165    7155    7154    7168                
CQUAD4     17286       4    7167    7168    8196    8195                
CQUAD4     17287       4    7168    7154    7990    8196                
CQUAD4     17288       4    7178    7177    7181    7180                
CQUAD4     17289       4    7177    7174    7173    7181                
CQUAD4     17290       4    7180    7181    7135    7136                
CQUAD4     17291       4    7181    7173    7134    7135                
CQUAD4     17292       4    8194    7179    7182    8193                
CQUAD4     17293       4    7179    7178    7180    7182                
CQUAD4     17294       4    8193    7182    7137    7650                
CQUAD4     17295       4    7182    7180    7136    7137                
CQUAD4     17296       4    7153    7152    7185    7183                
CQUAD4     17297       4    7152    7151    7176    7185                
CQUAD4     17298       4    7183    7185    7186    7184                
CQUAD4     17299       4    7185    7176    7175    7186                
CQUAD4     17300       4    7184    7186    7177    7178                
CQUAD4     17301       4    7186    7175    7174    7177                
CQUAD4     17302       4    7990    7153    7183    8196                
CQUAD4     17303       4    8195    8196    7183    7187                
CTRIA3     17304       4    7187    7183    7184                        
CQUAD4     17305       4    8195    7187    7179    8194                
CQUAD4     17306       4    7187    7184    7178    7179                
CQUAD4     17307       4    7188    7170    7169    7190                
CQUAD4     17308       4    7190    7169    7131    7132                
CQUAD4     17309       4    7174    7189    7191    7173                
CQUAD4     17310       4    7189    7188    7190    7191                
CQUAD4     17311       4    7173    7191    7133    7134                
CQUAD4     17312       4    7191    7190    7132    7133                
CQUAD4     17313       4    7149    7148    7172    7192                
CQUAD4     17314       4    7192    7172    7171    7193                
CQUAD4     17315       4    7193    7171    7170    7188                
CQUAD4     17316       4    7151    7150    7194    7176                
CQUAD4     17317       4    7150    7149    7192    7194                
CQUAD4     17318       4    7189    7174    7175    7195                
CQUAD4     17319       4    7195    7175    7176    7194                
CQUAD4     17320       4    7188    7189    7195    7193                
CQUAD4     17321       4    7193    7195    7194    7192                
CQUAD4     17322       4    7200    7197    7196    7204                
CQUAD4     17323       4    7204    7196    7127    7128                
CQUAD4     17324       4    7201    7200    7204    7203                
$ ... 13 like lines cut
CTRIA3     17338       4    7210    7206    7207                        
CQUAD4     17339       4    7171    7210    7202    7170                
CQUAD4     17340       4    7210    7207    7201    7202                
CQUAD4     17341       4    7215    7212    7211    7216                
CQUAD4     17342       4    7216    7211    7125    7126                
CQUAD4     17343       4    7197    7215    7216    7196                
CQUAD4     17344       4    7196    7216    7126    7127                
CQUAD4     17345       4    7197    7198    7213    7215                
CQUAD4     17346       4    7212    7215    7213    7220                
CQUAD4     17347       4    7213    7198    7199    7214                
CQUAD4     17348       4    7214    7199    7145    7144                
CQUAD4     17349       4    7217    9025    9024    7218                
CQUAD4     17350       4    7218    9024    8537    7124                
CQUAD4     17351       4    7212    7217    7218    7211                
CQUAD4     17352       4    7211    7218    7124    7125                
CQUAD4     17353       4    7143    8889    9026    7219                
CQUAD4     17354       4    9026    9025    7217    7220                
CTRIA3     17355       4    7219    9026    7220                        
CQUAD4     17356       4    7144    7143    7219    7214                
CQUAD4     17357       4    7214    7219    7220    7213                
CTRIA3     17358       4    7212    7220    7217                        
CQUAD4     17359       3    6405    6404    6408    6407178.9004        
CQUAD4     17360       3    6404    6402    6401    6408-179.393        
CQUAD4     17361       3    6407    6408    6396    6395179.6183        
CQUAD4     17362       3    6408    6401    6397    6396178.2993        
CQUAD4     17363       3    6388    6406    6409    6389-178.271        
CQUAD4     17364       3    6406    6405    6407    6409-179.644        
CQUAD4     17365       3    6389    6409    6394    6390-178.076        
CQUAD4     17366       3    6409    6407    6395    6394-179.646        
CQUAD4     17367       3    3884    3883    6411    6410178.3278        
CQUAD4     17368       3    3883    3882    6403    6411179.5659        
CQUAD4     17369       3    6410    6411    6404    6405 177.385        
CQUAD4     17370       3    6411    6403    6402    6404-179.041        
CQUAD4     17371       3    3911    3912    6412    6387179.5496        
CQUAD4     17372       3    3912    3884    6410    6412179.2691        
CQUAD4     17373       3    6387    6412    6406    6388-178.867        
CQUAD4     17374       3    6412    6410    6405    6406 -179.42        
CQUAD4     17375       3    6413    6378    6377    6417178.6981        
CQUAD4     17376       3    6417    6377    6376    6400178.3674        
CQUAD4     17377       3    6414    6413    6417    6416179.0104        
CQUAD4     17378       3    6416    6417    6400    6399178.6532        
$ ... 13 like lines cut
CTRIA3     17392       3    6415    6402    6424-20.1838                
CQUAD4     17393       3    6414    6415    6424    6420-1.03811        
CQUAD4     17394       3    6420    6424    6423    64191.517544        
CQUAD4     17395       3    6429    6428    6432    6431-178.959        
CQUAD4     17396       3    6428    6426    6425    6432-179.016        
CQUAD4     17397       3    6431    6432    8367    8366-178.089        
CQUAD4     17398       3    6432    6425    8368    8367-178.091        
CQUAD4     17399       3    6392    6430    6433    6393-177.714        
CQUAD4     17400       3    6430    6429    6431    6433-178.651        
CQUAD4     17401       3    6393    6433    8365    8364 -177.53        
CQUAD4     17402       3    6433    6431    8366    8365-177.903        
CQUAD4     17403       3    6396    6397    6427    6435178.9529        
CQUAD4     17404       3    6435    6427    6426    6428-179.865        
CQUAD4     17405       3    6395    6396    6435    6434179.7102        
CQUAD4     17406       3    6434    6435    6428    6429-179.734        
CQUAD4     17407       3    6390    6394    6436    6391-177.998        
CQUAD4     17408       3    6394    6395    6434    6436-179.518        
CQUAD4     17409       3    6391    6436    6430    6392-177.934        
CQUAD4     17410       3    6436    6434    6429    6430 -179.26        
CQUAD4     17411       3    6440    6438    6437    6441-178.925        
CQUAD4     17412       3    6441    6437    8370    8369 -177.97        
$ ... 36 like lines cut
CTRIA3     17449       3    6467    6471    646872.18138                
CQUAD4     17450       3    6453    6471    6450    6449-170.505        
CQUAD4     17451       3    6471    6469    6451    6450-179.576        
CQUAD4     17452       3    3909    3910    6473    6472179.5727        
CQUAD4     17453       3    3910    3911    6387    6473179.5861        
CQUAD4     17454       3    6472    6473    6465    6466-177.659        
CQUAD4     17455       3    6473    6387    6388    6465-177.852        
CQUAD4     17456       3    3908    3909    6472    6474179.6127        
CQUAD4     17457       3    6474    6472    6466    6467-178.481        
CQUAD4     17458       3    3906    3907    6475    6455178.9147        
CQUAD4     17459       3    3907    3908    6474    6475179.4347        
CQUAD4     17460       3    6455    6475    6468    6454-175.209        
CQUAD4     17461       3    6475    6474    6467    6468-177.029        
CQUAD4     17462       3    8358    8357    6481    6479 2.79862        
CQUAD4     17463       3    8357    8356    6386    64812.797454        
CQUAD4     17464       3    6479    6481    6482    6480 1.83904        
CQUAD4     17465       3    6481    6386    6385    64823.784855        
CQUAD4     17466       3    6480    6482    6446    64474.932236        
CQUAD4     17467       3    6482    6385    6384    64464.329363        
CQUAD4     17468       3    6483    6477    6476    6484-179.383        
CQUAD4     17469       3    6484    6476    8360    8359179.3058        
$ ... 5 like lines cut
CTRIA3     17475       3    6483    6480    6485-21.7128                
CQUAD4     17476       3    6489    6487    6486    6490-175.504        
CQUAD4     17477       3    6490    6486    8362    8361-176.255        
CQUAD4     17478       3    6477    6489    6490    6476-176.708        
CQUAD4     17479       3    6476    6490    8361    8360-177.206        
CQUAD4     17480       3    6450    6451    6488    6491-176.028        
CQUAD4     17481       3    6491    6488    6487    6489-175.159        
CQUAD4     17482       3    6449    6450    6491    6478-174.087        
CQUAD4     17483       3    6478    6491    6489    6477-175.806        
CQUAD4     17484       3    8364    8363    6493    63932.801176        
CQUAD4     17485       3    8363    8362    6486    64932.800817        
CQUAD4     17486       3    6393    6493    6492    63923.374983        
CQUAD4     17487       3    6493    6486    6487    6492 3.75866        
CQUAD4     17488       3    6392    6492    6494    63913.726736        
CQUAD4     17489       3    6492    6487    6488    64944.473101        
CQUAD4     17490       3    6391    6494    6452    63904.027201        
CQUAD4     17491       3    6494    6488    6451    64524.855454        
CQUAD4     17492       3    6502    6501    6512    6510 3.25559        
CQUAD4     17493       3    6501    6497    6496    65123.125982        
CQUAD4     17494       3    6510    6512    6513    65112.140111        
CQUAD4     17495       3    6512    6496    6495    65132.177994        
$ ... 6 like lines cut
CTRIA3     17502       3    6515    6514    651673.32779                
CQUAD4     17503       3    6509    6515    3897    3898-4.46883        
CQUAD4     17504       3    6515    6516    3896    3897-.352513        
CQUAD4     17505       3    6516    6511    3895    3896 3.94819        
CQUAD4     17506       3    6506    6505    6519    65172.354012        
CQUAD4     17507       3    6505    6504    6508    65191.755567        
CQUAD4     17508       3    6517    6519    6520    65181.946803        
CQUAD4     17509       3    6519    6508    6509    65201.603915        
CQUAD4     17510       3    6518    6520    3899    3900-.175552        
CQUAD4     17511       3    6520    6509    3898    3899-.272643        
CQUAD4     17512       3    6383    6507    6521    63823.146085        
CQUAD4     17513       3    6507    6506    6517    65212.536429        
CQUAD4     17514       3    6382    6521    6522    6381 2.42297        
CQUAD4     17515       3    6521    6517    6518    65221.976241        
CQUAD4     17516       3    6381    6522    3901    3902.1728124        
CQUAD4     17517       3    6522    6518    3900    3901-.210447        
CQUAD4     17518       3    6527    6526    6530    6529-177.069        
CQUAD4     17519       3    6526    6524    6523    6530-177.172        
CQUAD4     17520       3    6529    6530    8351    8350-177.099        
CQUAD4     17521       3    6530    6523    8352    8351-177.123        
CQUAD4     17522       3    6499    6528    6531    6500-176.543        
$ ... 73 like lines cut
CTRIA3     17596       3    6579    6569    6581-25.9557                
CQUAD4     17597       3    6582    6499    6500    6584-175.836        
CQUAD4     17598       3    6584    6500    8348    8347-176.391        
CQUAD4     17599       3    6577    6583    6585    6576-177.348        
CQUAD4     17600       3    6583    6582    6584    6585-175.801        
CQUAD4     17601       3    6576    6585    8346    8345 -177.57        
CQUAD4     17602       3    6585    6584    8347    8346 -176.44        
CQUAD4     17603       3    6551    6497    6498    6586-175.679        
CQUAD4     17604       3    6586    6498    6499    6582-175.501        
CQUAD4     17605       3    6549    6550    6587    6578-176.007        
CQUAD4     17606       3    6550    6551    6586    6587-175.358        
CQUAD4     17607       3    6578    6587    6583    6577-176.779        
CQUAD4     17608       3    6587    6586    6582    6583-175.373        
CQUAD4     17609       8    8385    8384    8392    8388                
CQUAD4     17610       8    8384    8368    8369    8392                
CQUAD4     17611       8    8388    8392    8391    8389                
CQUAD4     17612       8    8392    8369    8370    8391                
CQUAD4     17613       8    8375    8374    8390    8393                
CQUAD4     17614       8    8393    8390    8389    8391                
CQUAD4     17615       8    8339    8375    8393    8371                
CQUAD4     17616       8    8371    8393    8391    8370                
$ ... 887 like lines cut
CTRIA3     18504       7    7612    7610    7613                        
CQUAD4     18505       7    7504    7611    7616    7503                
CQUAD4     18506       7    7611    7610    7615    7616                
CQUAD4     18507       7    7610    7528    7527    7615                
CQUAD4     18508       7    7503    7616    7609    7502                
CQUAD4     18509       7    7616    7615    7608    7609                
CQUAD4     18510       7    7615    7527    7526    7608                
CQUAD4     18511       7    7502    7609    7607    7501                
CQUAD4     18512       7    7526    7525    7607    7608                
CTRIA3     18513       7    7608    7607    7609                        
CQUAD4     18514       2    3196    3194    3193    3197.5735659        
CQUAD4     18515       2    3197    3193    3191    3190.7195621        
CQUAD4     18516       2    3184    3196    3197    3185.5723678        
CQUAD4     18517       2    3185    3197    3190    3186.7208091        
CQUAD4     18518       2    8587    8588    3195    3198.2688758        
CQUAD4     18519       2    3198    3195    3194    3196.4301173        
CQUAD4     18520       2    8586    8587    3198    3183.2687704        
CQUAD4     18521       2    3183    3198    3196    3184.4302233        
CQUAD4     18522       2    3199    1894    1893    3200.5828259        
CQUAD4     18523       2    3200    1893    1892    3192.7051073        
CQUAD4     18524       2    3194    3199    3200    3193.5735804        
CQUAD4     18525       2    3193    3200    3192    3191.7113322        
CQUAD4     18526       2    8589    8571    1895    3201.2717621        
CQUAD4     18527       2    3201    1895    1894    3199.4156302        
CQUAD4     18528       2    8588    8589    3201    3195.2693972        
CQUAD4     18529       2    3195    3201    3199    3194.4312751        
CQUAD4     18530       2    3205    3203    3202    32061.008436        
CQUAD4     18531       2    3206    3202    3174    3173.9868892        
CQUAD4     18532       2    3188    3205    3206    3189 1.01526        
CQUAD4     18533       2    3189    3206    3173    3172 .985197        
$ ... 59 like lines cut
CTRIA3     18593       2    3253    3249    3254161.0702                
CQUAD4     18594       2    3254    3249    3250    3255-160.107        
CQUAD4     18595       2    3255    3250    8578    8579-172.604        
CQUAD4     18596       2    3256    3177    3178    3257-1.16944        
CQUAD4     18597       2    3257    3178    3179    3248-1.64604        
CQUAD4     18598       2    3254    3256    3257    3253.0893136        
CQUAD4     18599       2    3253    3257    3248    3247-2.39122        
CQUAD4     18600       2    8580    8581    3176    3258.2671759        
CQUAD4     18601       2    3258    3176    3177    3256-.399381        
CQUAD4     18602       2    8579    8580    3258    3255.2668965        
CQUAD4     18603       2    3255    3258    3256    32541.742371        
CQUAD4     18604       2    3262    3260    3259    3263-1.44282        
CQUAD4     18605       2    3263    3259    3164    3163-.242793        
CQUAD4     18606       2    3243    3262    3263    3244-1.19684        
CQUAD4     18607       2    3244    3263    3163    3162 -.13007        
CQUAD4     18608       2    3245    3246    3261    3264-3.51575        
CQUAD4     18609       2    3264    3261    3260    3262-2.78509        
CQUAD4     18610       2    3241    3245    3264    3242-2.18286        
CQUAD4     18611       2    3242    3264    3262    3243-1.97555        
CQUAD4     18612       2    3165    3164    3259    3265-178.806        
CQUAD4     18613       2    3265    3259    3260    3266179.8758        
$ ... 54 like lines cut
CTRIA3     18668       6    7484    7492    7483                        
CQUAD4     18669       6    7489    7484    7483    7490                
CQUAD4     18670       6    7490    7483    7497    7498                
CQUAD4     18671       6    7489    7488    7491    7484                
CQUAD4     18672       6    7492    7484    7491    7482                
CQUAD4     18673       6    7491    7488    7388    7387                
CQUAD4     18674       6    7495    7496    7492    7482                
CQUAD4     18675       6    7482    7491    7387    7386                
CQUAD4     18676       6    7494    7495    7482    7481                
CQUAD4     18677       6    7386    7385    7481    7482                
CQUAD4     18678       2    3304    3300    3299    3306.6669531        
CQUAD4     18679       2    3306    3299    3298    33071.388358        
CQUAD4     18680       2    3307    3298    3297    3308 1.83668        
CQUAD4     18681       2    3308    3297    3155    31561.954439        
CQUAD4     18682       2    3309    1890    1891    3310-178.426        
CQUAD4     18683       2    3310    1891    1892    3305-178.582        
CQUAD4     18684       2    3307    3309    3310    3306-178.369        
CQUAD4     18685       2    3306    3310    3305    3304-178.538        
CQUAD4     18686       2    3157    1888    1889    3311-178.204        
CQUAD4     18687       2    3311    1889    1890    3309-178.253        
CQUAD4     18688       2    3156    3157    3311    3308-178.204        
$ ... 22 like lines cut
CTRIA3     18711       2    3326    3321    3325-19.2704                
CQUAD4     18712       2    3154    3155    3297    3327 -178.19        
CQUAD4     18713       2    3327    3297    3298    3325-176.165        
CQUAD4     18714       2    3153    3154    3327    3322-178.148        
CQUAD4     18715       2    3322    3327    3325    3321-173.214        
CQUAD4     18716       2    3331    3329    3328    3332 177.938        
CQUAD4     18717       2    3332    3328    8600    8599179.1584        
CQUAD4     18718       2    3295    3331    3332    3296178.1255        
CQUAD4     18719       2    3296    3332    8599    8598179.1354        
CQUAD4     18720       2    3318    3319    3330    3333176.0461        
CQUAD4     18721       2    3333    3330    3329    3331 176.789        
CQUAD4     18722       2    3141    3318    3333    3140177.9204        
CQUAD4     18723       2    3140    3333    3331    3295177.6165        
CQUAD4     18724       2    3334    3302    3303    3335178.7486        
CQUAD4     18725       2    3335    3303    8602    8601179.5184        
CQUAD4     18726       2    3329    3334    3335    3328177.8349        
CQUAD4     18727       2    3328    3335    8601    8600179.2087        
CQUAD4     18728       2    3320    3300    3301    3336177.6506        
CQUAD4     18729       2    3336    3301    3302    3334178.0333        
CQUAD4     18730       2    3319    3320    3336    3330171.5128        
CQUAD4     18731       2    3330    3336    3334    3329 175.845        
CQUAD4     18732       2    3348    3346    3345    3349-177.731        
CQUAD4     18733       2    3349    3345    3343    3342179.3578        
CQUAD4     18734       2    3342    3339    3338    3349-7.82985        
CTRIA3     18735       2    3349    3338    3348 -19.115                
CQUAD4     18736       2    3148    3149    3347    3350-178.177        
CQUAD4     18737       2    3350    3347    3346    3348-176.239        
CQUAD4     18738       2    3147    3148    3350    3337-178.115        
CQUAD4     18739       2    3337    3350    3348    3338-172.243        
CQUAD4     18740       2    3351    3142    3141    3352179.0936        
CQUAD4     18741       2    3352    3141    3140    3344178.1941        
CQUAD4     18742       2    3346    3351    3352    3345-179.796        
CQUAD4     18743       2    3345    3352    3344    3343179.0913        
CQUAD4     18744       2    3150    3151    3143    3353-178.185        
CQUAD4     18745       2    3353    3143    3142    3351-179.571        
CQUAD4     18746       2    3149    3150    3353    3347-178.189        
CQUAD4     18747       2    3347    3353    3351    3346-178.826        
CQUAD4     18748       2    8596    8595    3356    3354.2580585        
CQUAD4     18749       2    8595    8594    3341    3356.2575982        
CQUAD4     18750       2    3342    3343    3355    3357177.0854        
CQUAD4     18751       2    3357    3355    3354    3356177.7306        
CQUAD4     18752       2    3339    3342    3357    3340172.2955        
CQUAD4     18753       2    3340    3357    3356    3341176.9331        
CQUAD4     18754       2    8598    8597    3358    3296.2586584        
CQUAD4     18755       2    8597    8596    3354    3358.2571436        
$ ... 179 like lines cut
CTRIA3     18935       5    7357    7359    7356                        
CQUAD4     18936       5    7349    7348    7358    7353                
CQUAD4     18937       5    7353    7358    7359    7354                
CQUAD4     18938       5    7354    7359    7279    7278                
CQUAD4     18939       5    7350    7349    7353    7360                
CQUAD4     18940       5    7360    7353    7354    7361                
CQUAD4     18941       5    7361    7354    7278    7277                
CQUAD4     18942       5    7351    7350    7360    7362                
CQUAD4     18943       5    7277    7276    7362    7361                
CTRIA3     18944       5    7361    7362    7360                        
CQUAD4     18945       2    3548    3545    3544    3550-90.2527        
CQUAD4     18946       2    3550    3544    3540    3539-90.3431        
CQUAD4     18947       2    3549    3548    3550    3551-90.5978        
CQUAD4     18948       2    3551    3550    3539    3538-90.8012        
CQUAD4     18949       2    8534    3549    3551    8533-90.8149        
CQUAD4     18950       2    8533    3551    3538    8532-91.0513        
CQUAD4     18951       2    7226    7225    3547    3552-90.0017        
CQUAD4     18952       2    3552    3547    3546    3553-90.1159        
CQUAD4     18953       2    3553    3546    3545    3548 -90.173        
CQUAD4     18954       2    8537    7227    3554    8536-89.9992        
CQUAD4     18955       2    7227    7226    3552    3554 -89.998        
CQUAD4     18956       2    3549    8534    8535    355589.18555        
CQUAD4     18957       2    3555    8535    8536    3554 89.4356        
CQUAD4     18958       2    3548    3549    3555    355389.40221        
CQUAD4     18959       2    3553    3555    3554    355289.61899        
CQUAD4     18960       2    3556    3529    3528    3560-87.3787        
CQUAD4     18961       2    3560    3528    3527    3543-86.4929        
CQUAD4     18962       2    3557    3556    3560    3559-88.0268        
CQUAD4     18963       2    3559    3560    3543    3542-87.4007        
CQUAD4     18964       2    3558    3557    3559    3561-88.9406        
$ ... 88 like lines cut
CTRIA3     19053       2    3624    3623    3625-21.2534                
CQUAD4     19054       2    3631    3630    3634    3633-92.4607        
CQUAD4     19055       2    3630    3627    3626    3634-90.1978        
CQUAD4     19056       2    3633    3634     404     403 -92.683        
CQUAD4     19057       2    3634    3626     405     404-90.3592        
CQUAD4     19058       2    8519    3632    3635    8518 -94.397        
CQUAD4     19059       2    3632    3631    3633    3635-93.8532        
CQUAD4     19060       2    8518    3635     402    8517-94.6223        
CQUAD4     19061       2    3635    3633     403     402-94.1898        
CQUAD4     19062       2    3593    3594    3638    3636-92.0899        
CQUAD4     19063       2    3594    3595    3629    3638-90.2991        
CQUAD4     19064       2    3636    3638    3639    3637-92.2096        
CQUAD4     19065       2    3638    3629    3628    3639-90.2341        
CQUAD4     19066       2    3637    3639    3630    3631-92.3089        
CQUAD4     19067       2    3639    3628    3627    3630-90.1763        
CQUAD4     19068       2    8522    3592    3640    8521-93.3598        
CQUAD4     19069       2    3592    3593    3636    3640-93.1593        
CQUAD4     19070       2    8521    3640    3641    8520-93.8018        
CQUAD4     19071       2    3640    3636    3637    3641-93.3955        
CQUAD4     19072       2    8520    3641    3632    8519-94.1331        
CQUAD4     19073       2    3641    3637    3631    3632-93.6092        
$ ... 260 like lines cut
CTRIA3     19334       4    7234    7228    7233                        
CQUAD4     19335       4    7228    7234    7235    7229                
CQUAD4     19336       4    7229    7235    7141    7140                
CQUAD4     19337       4    7223    7224    7238    7236                
CQUAD4     19338       4    7224    7225    7228    7238                
CTRIA3     19339       4    7229    7238    7228                        
CQUAD4     19340       4    7237    7236    7238    7229                
CQUAD4     19341       4    7237    7229    7140    7139                
CQUAD4     19342       4    7222    7223    7236    7239                
CQUAD4     19343       4    7139    7138    7239    7237                
CTRIA3     19344       4    7237    7239    7236                        
CTRIA3     19345       4    7222    7239    7221                        
CTRIA3     19346       4    7239    7138    7221                        
CTRIA3     19347       6    7494    7481    7493                        
CTRIA3     19348       6    7385    7493    7481                        
CTRIA3     19349       5    7351    7362    7352                        
CTRIA3     19350       5    7276    7352    7362                        
CTRIA3     19351       7    7501    7607    7500                        
CTRIA3     19352       7    7607    7525    7500                        
CTRIA3     19353       3    3518    3519    7045-.560108                
CQUAD4     19354       3    7057    3517    3518    7045104.1936        
CTRIA3     19355       3     278    7019    6965-71.7477                
CQUAD4     19356       3    6997     279     278    696570.99448        