$ MSC.Nastran input file created on May       10, 2020 at 17:55:11 by
$ Patran 2017.0.1
$
$ Direct Text Input for Bulk Data
$ Elements and Element Properties for region : beam
PBEAM*   1               1              .140845         5.6338-5
*       2.8169-7                        3.74532-7
+
$ Pset: "beam" will be imported as: "pbeam.1"
CBEAM    1       1       1       2      -1.      0.      0.
CBEAM    2       1       2       3      -1.      0.      0.
CBEAM    3       1       3       4      -1.      0.      0.
CBEAM    4       1       4       5      -1.      0.      0.
CBEAM    5       1       5       6      -1.      0.      0.
CBEAM    6       1       6       7      -1.      0.      0.
CBEAM    7       1       7       8      -1.      0.      0.
CBEAM    8       1       8       9      -1.      0.      0.
CBEAM    9       1       9       10     -1.      0.      0.
CBEAM    10      1       10      11     -1.      0.      0.
CBEAM    11      1       11      12     -1.      0.      0.
CBEAM    12      1       12      13     -1.      0.      0.
CBEAM    13      1       13      14     -1.      0.      0.
CBEAM    14      1       14      15     -1.      0.      0.
CBEAM    15      1       15      16     -1.      0.      0.
CBEAM    16      1       16      17     -1.      0.      0.
CBEAM    17      1       17      18     -1.      0.      0.
CBEAM    18      1       18      19     -1.      0.      0.
CBEAM    19      1       19      20     -1.      0.      0.
CBEAM    20      1       20      21     -1.      0.      0.
$ ... 20 like lines cut
$ Elements and Element Properties for region : conmass
CONM2    101     1       0       0.      0.      0.      0.
         0.      0.     .02000   0.      0.      0.
CONM2    102     2       0       0.      0.      0.      0.
         0.      0.     .04000   0.      0.      0.
CONM2    103     3       0       0.      0.      0.      0.
         0.      0.     .04000   0.      0.      0.
CONM2    104     4       0       0.      0.      0.      0.
         0.      0.     .04000   0.      0.      0.
CONM2    105     5       0       0.      0.      0.      0.
         0.      0.     .04000   0.      0.      0.
CONM2    106     6       0       0.      0.      0.      0.
         0.      0.     .04000   0.      0.      0.
CONM2    107     7       0       0.      0.      0.      0.
         0.      0.     .04000   0.      0.      0.
CONM2    108     8       0       0.      0.      0.      0.
         0.      0.     .04000   0.      0.      0.
CONM2    109     9       0       0.      0.      0.      0.
         0.      0.     .04000   0.      0.      0.
CONM2    110     10      0       0.      0.      0.      0.
         0.      0.     .04000   0.      0.      0.
CONM2    111     11      0       0.      0.      0.      0.
         0.      0.     .04000   0.      0.      0.
CONM2    112     12      0       0.      0.      0.      0.
         0.      0.     .04000   0.      0.      0.
CONM2    113     13      0       0.      0.      0.      0.
         0.      0.     .04000   0.      0.      0.
CONM2    114     14      0       0.      0.      0.      0.
         0.      0.     .04000   0.      0.      0.
CONM2    115     15      0       0.      0.      0.      0.
         0.      0.     .04000   0.      0.      0.
CONM2    116     16      0       0.      0.      0.      0.
         0.      0.     .04000   0.      0.      0.
CONM2    117     17      0       0.      0.      0.      0.
         0.      0.     .04000   0.      0.      0.
CONM2    118     18      0       0.      0.      0.      0.
         0.      0.     .04000   0.      0.      0.
CONM2    119     19      0       0.      0.      0.      0.
         0.      0.     .04000   0.      0.      0.
CONM2    120     20      0       0.      0.      0.      0.
         0.      0.     .04000   0.      0.      0.
$ ... 42 like lines cut
$ Referenced Material Records
$ Material Record : al
$ Description of Material : Date: 10-May-20           Time: 17:38:55
MAT1     1      7.1+10  2.67+10         5.325
$ Nodes of the Entire Model
GRID     1               0.      0.      0.
GRID*    2                               0.             .400000005960465
*        0.
GRID*    3                               0.             .800000011920929
*        0.
GRID*    4                               0.             1.20000004768372
*        0.
GRID*    5                               0.             1.60000002384186
*        0.
GRID     6               0.     2.       0.
GRID*    7                               0.             2.40000009536743
*        0.
GRID*    8                               0.             2.79999995231628
*        0.
GRID*    9                               0.             3.20000004768372
*        0.
GRID*    10                              0.             3.59999990463257
*        0.
GRID     11              0.     4.       0.
GRID*    12                              0.             4.40000009536743
*        0.
GRID*    13                              0.             4.80000019073486
*        0.
GRID*    14                              0.             5.19999980926514
*        0.
GRID*    15                              0.             5.59999990463257
*        0.
GRID     16              0.     6.       0.
GRID*    17                              0.             6.40000009536743
*        0.
GRID*    18                              0.             6.80000019073486
*        0.
GRID*    19                              0.             7.19999980926514
*        0.
GRID*    20                              0.             7.59999990463257
*        0.
GRID     21              0.     8.       0.
GRID*    22                              0.             8.39999961853027
*        0.
GRID*    23                              0.             8.80000019073486
*        0.
GRID*    24                              0.             9.19999980926514
*        0.
GRID*    25                              0.             9.60000038146973
*        0.
GRID     26              0.     10.      0.
GRID*    27                              0.             10.3999996185303
*        0.
GRID*    28                              0.             10.8000001907349
*        0.
GRID*    29                              0.             11.1999998092651
*        0.
GRID*    30                              0.             11.6000003814697
*        0.
GRID     31              0.     12.      0.
GRID*    32                              0.             12.3999996185303
*        0.
GRID*    33                              0.             12.8000001907349
*        0.
GRID*    34                              0.             13.1999998092651
*        0.
GRID*    35                              0.             13.6000003814697
*        0.
GRID     36              0.     14.      0.
GRID*    37                              0.             14.3999996185303
*        0.
GRID*    38                              0.             14.8000001907349
*        0.
GRID*    39                              0.             15.1999998092651
*        0.
GRID*    40                              0.             15.6000003814697
*        0.
GRID     41              0.     16.      0.
$ Loads for Load Case : Default
$ Referenced Coordinate Frames