INIT MASTER(S)
$ THIS IS AN EXAMPLE RUN FILE USED TO PERFORM BUCKLING ANALYSIS OF
$  THE UCRM-13.5 COARSE STRUCTURAL MODEL
NASTRAN SYSTEM(442)=-1,SYSTEM(319)=1
ID FEMAP,FEMAP
SOL SEBUCKL
TIME 10
CEND
RESVEC = NO
  TITLE = BUCKLING ANALYSIS OF UCRM13.5
  ECHO = NONE
SUBCASE 1
  SUBTITLE = LOAD = 1.0 G
  DISPLACEMENT(PRINT) = ALL
  SPC = 1
  LOAD = 101
   VECTOR(SORT1,REAL)=ALL
$
BEGIN BULK
PARAM   PRTMAXIM YES
$ ***************************************************************************
$   Written by : Femap
$   Version    : 2020.2.2
$   Translator : Simcenter Nastran
$   From Model : 
$   Date       : Wed May 26 10:48:33 2021
$   Output To  : C:\Users\bilal\AppData\Local\Temp\
$ ***************************************************************************
$
PARAM,PRGPST,YES
PARAM,POST,-1
PARAM,OGEOM,YES
PARAM,AUTOSPC,NO
PARAM,K6ROT,100000.
PARAM,MAXRATIO,1.+7
PARAM,GRDPNT,1
PARAM,WTMASS,1.
PARAM,COUPMASS,-1
EIGRL         10    1.-4               2       0                    MASS
CORD2C         1       0      0.      0.      0.      0.      0.      1.+FEMAPC1
+FEMAPC1      1.      0.      1.        
CORD2S         2       0      0.      0.      0.      0.      0.      1.+FEMAPC2
+FEMAPC2      1.      0.      1.        
$ Femap Coordinate System 3 : Rectangular Coordinate System
CORD2R         3       0      0.      0.      0.     -1.      0.      0.+       
+             0.      0.      1.        
$ Femap Coordinate System 4 : Rectangular Coordinate System
CORD2R         4       0      0.      0.      0.     -1.      0.      0.+       
+             0.      0.      1.        
$ Femap Coordinate System 5 : Rectangular Coordinate System
CORD2R         5       0      0.      0.      0.     -1.      0.      0.+       
+             0.      0.      1.        
$ Femap Coordinate System 6 : Rectangular Coordinate System
CORD2R         6       0      0.      0.      0.     -1.      0.      0.+       
+             0.      0.      1.        
$ Femap Coordinate System 7 : Rectangular Coordinate System
CORD2R         7       0      0.      0.      0.     -1.      0.      0.+       
+             0.      0.      1.        
$ Femap Coordinate System 8 : Rectangular Coordinate System
CORD2R         8       0      0.      0.      0.     -1.      0.      0.+       
+             0.      0.      1.        
$ Femap Coordinate System 9 : Rectangular Coordinate System
CORD2R         9       0      0.      0.      0.     -1.      0.      0.+       
+             0.      0.      1.        
$ Femap Coordinate System 10 : Rectangular Coordinate System
CORD2R        10       0      0.      0.      0.     -1.      0.      0.+       
+             0.      0.      1.        
$ Femap Coordinate System 11 : Rectangular Coordinate System
CORD2R        11       0      0.      0.      0.     -1.      0.      0.+       
+             0.      0.      1.        
$ Femap Coordinate System 12 : Rectangular Coordinate System
CORD2R        12       0      0.      0.      0.     -1.      0.      0.+       
+             0.      0.      1.        
$ Femap Coordinate System 13 : Rectangular Coordinate System
CORD2R        13       0      0.      0.      0.     -1.      0.      0.+       
+             0.      0.      1.        
$ Femap Coordinate System 14 : Rectangular Coordinate System
CORD2R        14       0      0.      0.      0.     -1.      0.      0.+       
+             0.      0.      1.        
$ Femap Coordinate System 15 : Rectangular Coordinate System
CORD2R        15       0      0.      0.      0.     -1.      0.      0.+       
+             0.      0.      1.        
$ Femap Coordinate System 16 : Rectangular Coordinate System
CORD2R        16       0      0.      0.      0.     -1.      0.      0.+       
+             0.      0.      1.        
$ Femap Coordinate System 17 : Rectangular Coordinate System
CORD2R        17       0      0.      0.      0.     -1.      0.      0.+       
+             0.      0.      1.        
$ Femap Coordinate System 18 : Rectangular Coordinate System
CORD2R        18       0      0.      0.      0.     -1.      0.      0.+       
+             0.      0.      1.        
$ Femap Coordinate System 19 : Rectangular Coordinate System
CORD2R        19       0      0.      0.      0.     -1.      0.      0.+       
+             0.      0.      1.        
$ Femap Coordinate System 20 : Rectangular Coordinate System
CORD2R        20       0      0.      0.      0.     -1.      0.      0.+       
+             0.      0.      1.        
$ Femap Coordinate System 21 : Rectangular Coordinate System
CORD2R        21       0      0.      0.      0.     -1.      0.      0.+       
+             0.      0.      1.        
$ Femap Coordinate System 22 : Rectangular Coordinate System
CORD2R        22       0      0.      0.      0.     -1.      0.      0.+       
+             0.      0.      1.        
$ ... 807 like lines cut
$ Femap Load Set 201 : NASTRAN GRAV 201
GRAV         201       0      1.      0.      0.   -9.81
$ Femap Load Set 101 : Combined Set
LOAD         101      1.      1.     201                                
$ Femap Constraint Set 1 : NASTRAN SPC 1
SPC            1  156608       3      0.
SPC            1  156609       3      0.
SPC            1  156610       3      0.
SPC            1  156611       3      0.
SPC            1  156612       3      0.
SPC            1  156613       3      0.
SPC            1  156614       3      0.
SPC            1  156615       3      0.
SPC            1  156616       3      0.
SPC            1  156617       3      0.
SPC            1  156618       3      0.
SPC            1  156619       3      0.
SPC            1  156620       3      0.
SPC            1  156621       3      0.
SPC            1  156622       3      0.
SPC            1  156623       3      0.
SPC            1  156624       3      0.
SPC            1  156625       3      0.
SPC            1  156626       3      0.
SPC            1  156627       3      0.
$ ... 1061 like lines cut
$ Femap Property 1 : PLATE Property
PSHELL         1       1.0130719       2 .741527       3      1.      0.+       
+                              4
$ Femap Property 2 : PLATE Property
PSHELL         2       5.0117628       6.6990231       7      1.      0.+       
+                              8
$ Femap Property 3 : PLATE Property
PSHELL         3       9 .009463      10 .565095      11      1.      0.+       
+                             12
$ Femap Property 4 : PLATE Property
PSHELL         4      13.0078476      14.4307395      15      1.      0.+       
+                             16
$ Femap Property 5 : PLATE Property
PSHELL         5      17.0110647      18.4320596      19      1.      0.+       
+                             20
$ Femap Property 6 : PLATE Property
PSHELL         6      21.0072597      22.4339763      23      1.      0.+       
+                             24
$ Femap Property 7 : PLATE Property
PSHELL         7      25.0076542      26.4318717      27      1.      0.+       
+                             28
$ Femap Property 8 : PLATE Property
PSHELL         8      29 .008531      30 .429024      31      1.      0.+       
+                             32
$ Femap Property 9 : PLATE Property
PSHELL         9      33.0081608      34.4298098      35      1.      0.+       
+                             36
$ Femap Property 10 : PLATE Property
PSHELL        10      37.0075188      38.4326638      39      1.      0.+       
+                             40
$ Femap Property 11 : PLATE Property
PSHELL        11      41.0071142      42.4320014      43      1.      0.+       
+                             44
$ Femap Property 12 : PLATE Property
PSHELL        12      45.0067676      46.4290298      47      1.      0.+       
+                             48
$ Femap Property 13 : PLATE Property
PSHELL        13      49.0060302      50.4351239      51      1.      0.+       
+                             52
$ Femap Property 14 : PLATE Property
PSHELL        14      53.0057131      54.4459432      55      1.      0.+       
+                             56
$ Femap Property 15 : PLATE Property
PSHELL        15      57.0061534      58.4325163      59      1.      0.+       
+                             60
$ Femap Property 16 : PLATE Property
PSHELL        16      61.0072834      62.4343332      63      1.      0.+       
+                             64
$ Femap Property 17 : PLATE Property
PSHELL        17      65.0066011      66.4286822      67      1.      0.+       
+                             68
$ Femap Property 18 : PLATE Property
PSHELL        18      69.0063177      70.4301781      71      1.      0.+       
+                             72
$ Femap Property 19 : PLATE Property
PSHELL        19      73.0089432      74.4286901      75      1.      0.+       
+                             76
$ Femap Property 20 : PLATE Property
PSHELL        20      77.0061509      78.4325621      79      1.      0.+       
+                             80
$ ... 801 like lines cut
$ Femap Material 1 : 2D ANISOTROPIC Material
MAT2           17.299+109.9541+9      0.3.318+10      0.1.161+10   2780.+       
+             0.      0.      0.  293.15                                
$ Femap Material 2 : 2D ANISOTROPIC Material
MAT2           25.168+122.4976+9      0.8.3253+9      0.1.892+10   2780.+       
+             0.      0.      0.  293.15                                
$ Femap Material 3 : 2D ANISOTROPIC Material
MAT2           31.606+10      0.      0.9.6776+9      0.      0.   2780.+       
+             0.      0.      0.  293.15                                
$ Femap Material 4 : 2D ANISOTROPIC Material
MAT2           41.043+11      0.      0.      0.      0.      0.   2780.+       
+             0.      0.      0.  293.15                                
$ Femap Material 5 : 2D ANISOTROPIC Material
MAT2           57.309+10 1.03+10      0.3.434+10      0.1.202+10   2780.+       
+             0.      0.      0.  293.15                                
$ Femap Material 6 : 2D ANISOTROPIC Material
MAT2           6 6.59+122.9371+9      0.9.7904+9      0.1.909+10   2780.+       
+             0.      0.      0.  293.15                                
$ Femap Material 7 : 2D ANISOTROPIC Material
MAT2           71.623+10      0.      0.1.002+10      0.      0.   2780.+       
+             0.      0.      0.  293.15                                
$ Femap Material 8 : 2D ANISOTROPIC Material
MAT2           81.128+11      0.      0.      0.      0.      0.   2780.+       
+             0.      0.      0.  293.15                                
$ Femap Material 9 : 2D ANISOTROPIC Material
MAT2           9 7.35+101.165+10      0.3.884+10      0.1.359+10   2780.+       
+             0.      0.      0.  293.15                                
$ Femap Material 10 : 2D ANISOTROPIC Material
MAT2          101.127+135.2569+9      0.1.752+10      0.1.999+10   2780.+       
+             0.      0.      0.  293.15                                
$ Femap Material 11 : 2D ANISOTROPIC Material
MAT2          111.688+10      0.      0.1.133+10      0.      0.   2780.+       
+             0.      0.      0.  293.15                                
$ Femap Material 12 : 2D ANISOTROPIC Material
MAT2          121.254+11      0.      0.      0.      0.      0.   2780.+       
+             0.      0.      0.  293.15                                
$ Femap Material 13 : 2D ANISOTROPIC Material
MAT2          13 7.44+101.467+10      0.4.891+10      0.1.712+10   2780.+       
+             0.      0.      0.  293.15                                
$ Femap Material 14 : 2D ANISOTROPIC Material
MAT2          141.583+131.377+10      0. 4.59+10      0. 2.33+10   2780.+       
+             0.      0.      0.  293.15                                
$ Femap Material 15 : 2D ANISOTROPIC Material
MAT2          151.835+10      0.      0.1.426+10      0.      0.   2780.+       
+             0.      0.      0.  293.15                                
$ Femap Material 16 : 2D ANISOTROPIC Material
MAT2          161.113+11      0.      0.      0.      0.      0.   2780.+       
+             0.      0.      0.  293.15                                
$ Femap Material 17 : 2D ANISOTROPIC Material
MAT2          177.436+101.455+10      0. 4.85+10      0.1.697+10   2780.+       
+             0.      0.      0.  293.15                                
$ Femap Material 18 : 2D ANISOTROPIC Material
MAT2          188.076+121.339+10      0.4.462+10      0.2.315+10   2780.+       
+             0.      0.      0.  293.15                                
$ Femap Material 19 : 2D ANISOTROPIC Material
MAT2          191.829+10      0.      0.1.415+10      0.      0.   2780.+       
+             0.      0.      0.  293.15                                
$ Femap Material 20 : 2D ANISOTROPIC Material
MAT2          208.007+10      0.      0.      0.      0.      0.   2780.+       
+             0.      0.      0.  293.15                                
$ ... 3384 like lines cut
GRID      156406       034.2316411.037584.571534       0
GRID      156407       034.2316411.037584.468267       0
GRID      156408       034.2316411.037584.365001       0
GRID      156409       0 34.630211.688674.372459       0
GRID      156410       0 34.630211.688674.473043       0
GRID      156411       0 34.630211.688674.573627       0
GRID      156412       032.22109 13.08644.336276       0
GRID      156413       032.22109 13.08644.458107       0
GRID      156414       032.22109 13.08644.579937       0
GRID      156415       031.7677212.467114.577127       0
GRID      156416       031.7677212.467114.451672       0
GRID      156417       031.7677212.467114.326216       0
GRID      156418       031.8432912.570334.702447       0
GRID      156419       031.9188512.673544.702311       0
GRID      156420       031.9944112.776764.702176       0
GRID      156421       032.0699712.87997 4.70204       0
GRID      156422       032.1455312.983184.701904       0
GRID      156423       0 32.330313.023044.713201       0
GRID      156424       032.43964 12.95964.722899       0
GRID      156425       032.5490612.89611 4.73102       0
$ ... 22088 like lines cut
CQUADR         1       1  157079  160397  160398  157080     290        
CQUADR         2       1  160100  159790  160397  157079     290        
CQUADR         3       1  160399  160400  159791  159792     290        
CQUADR         4       1  160401  160402  160400  160399     290        
CQUADR         5       1  160403  160405  160406  160404     290        
CQUADR         6       1  160407  160408  160405  160403     290        
CQUADR         7       1  160403  160409  160410  160407     290        
CQUADR         8       1  159840  160409  160403  159841     290        
CQUADR         9       1  160410  160409  159840  159839     290        
CQUADR        10       1  160411  160413  160414  160412     290        
CQUADR        11       1  156905  160413  160411  156906     290        
CQUADR        12       1  160415  160402  160401  160416     290        
CQUADR        13       1  160417  160398  160402  160415     290        
CQUADR        14       1  157080  160398  160417  157081     290        
CQUADR        15       1  160410  160418  160419  160407     290        
CQUADR        16       1  159838  160418  160410  159839     290        
CQUADR        17       1  157087  160420  160421  157088     290        
CQUADR        18       1  157086  160422  160420  157087     290        
CQUADR        19       1  160397  160400  160402  160398     290        
CQUADR        20       1  159791  160400  160397  159790     290        
$ ... 23379 like lines cut
ENDDATA 72d81442
