$----------Material Properties----------
MAT1       1    7.0e+10         0.33    2700.0
MAT1       2    7.0e+10         0.33    2700.0
MAT1       3    7.0e+10         0.33    2700.0
MAT1       4    7.0e+10         0.33    2700.0
MAT1       5    7.0e+10         0.33    2700.0
MAT1       6    7.0e+10         0.33    2700.0
MAT1       7    7.0e+10         0.33    2700.0
MAT1       8    7.0e+10         0.33    2700.0
MAT1       9    7.0e+10         0.33    2700.0  
MAT1       10   7.0e+10         0.33    2700.0
MAT1       11   7.0e+10         0.33    2700.0
MAT1       12   7.0e+10         0.33    2700.0
MAT1       13   7.0e+10         0.33    2700.0
MAT1       14   7.0e+10         0.33    2700.0
MAT1       15   7.0e+10         0.33    2700.0

$----------Element Property----------
PBEAML     1       1            BAR                                     
           0.050   0.003
PBEAML     2       2            BAR                                     
           0.050   0.003
PBEAML     3       3            BAR                                     
           0.050   0.003
PBEAML     4       4            BAR                                     
           0.050   0.003
PBEAML     5       5            BAR                                     
           0.050   0.003
PBEAML     6       6            BAR                                     
           0.050   0.003
PBEAML     7       7            BAR                                     
           0.050   0.003
PBEAML     8       8            BAR                                     
           0.050   0.003
PBEAML     9       9            BAR                                     
           0.050   0.003
PBEAML     10      10           BAR                                     
           0.050   0.003
PBEAML     11      11           BAR                                     
           0.050   0.003
PBEAML     12      12           BAR                                     
           0.050   0.003
PBEAML     13      13           BAR                                     
           0.050   0.003
PBEAML     14      14           BAR                                     
           0.050   0.003
PBEAML     15      15           BAR                                     
           0.050   0.003

$----------Grid Points----------
GRID       1               1.000   1.000   1.000
GRID       2               1.010   1.000   1.000
GRID       3               1.020   1.000   1.000
GRID       4               1.030   1.000   1.000
GRID       5               1.040   1.000   1.000
GRID       6               1.050   1.000   1.000
GRID       7               1.060   1.000   1.000
GRID       8               1.070   1.000   1.000
GRID       9               1.080   1.000   1.000
GRID       10              1.090   1.000   1.000
GRID       11              1.100   1.000   1.000
GRID       12              1.110   1.000   1.000
GRID       13              1.120   1.000   1.000
GRID       14              1.130   1.000   1.000
GRID       15              1.140   1.000   1.000
GRID       16              1.150   1.000   1.000
GRID       17              1.160   1.000   1.000
GRID       18              1.170   1.000   1.000
GRID       19              1.180   1.000   1.000
GRID       20              1.190   1.000   1.000
$ ... 131 like lines cut

$----------Beam Elements----------
CBEAM      1       1       1       2       0.000   0.000   1.000
CBEAM      2       1       2       3       0.000   0.000   1.000
CBEAM      3       1       3       4       0.000   0.000   1.000
CBEAM      4       1       4       5       0.000   0.000   1.000
CBEAM      5       1       5       6       0.000   0.000   1.000
CBEAM      6       1       6       7       0.000   0.000   1.000
CBEAM      7       1       7       8       0.000   0.000   1.000
CBEAM      8       1       8       9       0.000   0.000   1.000
CBEAM      9       1       9       10      0.000   0.000   1.000
CBEAM      10      1       10      11      0.000   0.000   1.000
CBEAM      11      2       11      12      0.000   0.000   1.000
CBEAM      12      2       12      13      0.000   0.000   1.000
CBEAM      13      2       13      14      0.000   0.000   1.000
CBEAM      14      2       14      15      0.000   0.000   1.000
CBEAM      15      2       15      16      0.000   0.000   1.000
CBEAM      16      2       16      17      0.000   0.000   1.000
CBEAM      17      2       17      18      0.000   0.000   1.000
CBEAM      18      2       18      19      0.000   0.000   1.000
CBEAM      19      2       19      20      0.000   0.000   1.000
CBEAM      20      2       20      21      0.000   0.000   1.000
$ ... 130 like lines cut

$----------Boundary Conditions----------
SPC1    1       123456  1    
SPCADD  777     1    
