$pyNastran: version=msc
$pyNastran: punch=True
$pyNastran: encoding=utf-8
$pyNastran: nnodes=76
$pyNastran: nelements=75

$NODES
$----------Grid Points----------
GRID           1              1.      1.      1.
GRID           2            1.02      1.      1.
GRID           3            1.04      1.      1.
GRID           4            1.06      1.      1.
GRID           5            1.08      1.      1.
GRID           6             1.1      1.      1.
GRID           7            1.12      1.      1.
GRID           8            1.14      1.      1.
GRID           9            1.16      1.      1.
GRID          10            1.18      1.      1.
GRID          11             1.2      1.      1.
GRID          12            1.22      1.      1.
GRID          13            1.24      1.      1.
GRID          14            1.26      1.      1.
GRID          15            1.28      1.      1.
GRID          16             1.3      1.      1.
GRID          17            1.32      1.      1.
GRID          18            1.34      1.      1.
GRID          19            1.36      1.      1.
GRID          20            1.38      1.      1.
$ ... 56 like lines cut

$ELEMENTS
$----------Beam Elements----------
CBEAM          1       1       1       2      0.      0.      1.
CBEAM          2       1       2       3      0.      0.      1.
CBEAM          3       1       3       4      0.      0.      1.
CBEAM          4       1       4       5      0.      0.      1.
CBEAM          5       1       5       6      0.      0.      1.
CBEAM          6       1       6       7      0.      0.      1.
CBEAM          7       1       7       8      0.      0.      1.
CBEAM          8       1       8       9      0.      0.      1.
CBEAM          9       1       9      10      0.      0.      1.
CBEAM         10       1      10      11      0.      0.      1.
CBEAM         11       1      11      12      0.      0.      1.
CBEAM         12       1      12      13      0.      0.      1.
CBEAM         13       1      13      14      0.      0.      1.
CBEAM         14       1      14      15      0.      0.      1.
CBEAM         15       1      15      16      0.      0.      1.
CBEAM         16       1      16      17      0.      0.      1.
CBEAM         17       1      17      18      0.      0.      1.
CBEAM         18       1      18      19      0.      0.      1.
CBEAM         19       1      19      20      0.      0.      1.
CBEAM         20       1      20      21      0.      0.      1.
$ ... 55 like lines cut

$PROPERTIES
$----------Element Property----------
PBEAML  1       1               BAR
        0.05    0.003   
PBEAML  2       2               BAR
        0.05    0.003   
PBEAML  3       3               BAR
        0.05    0.003   

$MATERIALS
$----------Material Property----------
MAT1    1       7.140+10        .33661362815.236
MAT1    2       6.759+10        .31863822602.422
MAT1    3       6.951+10        .3276716 2834.56

$MASSES
$----------Concentrated Masses----------
CONM2       1001      38        .1020103     .01      .1
CONM2       1002      76        .1019542             -.1

$SPCs
SPCADD       777       1
$----------Boundary Conditions-----------
SPC1           1  123456       1
