$----------Material Properties----------
MAT1       1    7.0e+10         0.33    2700.0
MAT1       2    7.0e+10         0.33    2700.0
MAT1       3    7.0e+10         0.33    2700.0

$----------Element Property----------
PBEAML     1       1            BAR                                     
           0.050   0.003
PBEAML     2       2            BAR                                     
           0.050   0.003
PBEAML     3       3            BAR                                     
           0.050   0.003

$----------Grid Points----------
GRID       1               1.000   1.000   1.000
GRID       2               1.010   1.000   1.000
GRID       3               1.020   1.000   1.000
GRID       4               1.030   1.000   1.000
GRID       5               1.040   1.000   1.000
GRID       6               1.050   1.000   1.000
GRID       7               1.060   1.000   1.000
GRID       8               1.070   1.000   1.000
GRID       9               1.080   1.000   1.000
GRID       10              1.090   1.000   1.000
GRID       11              1.100   1.000   1.000
GRID       12              1.110   1.000   1.000
GRID       13              1.120   1.000   1.000
GRID       14              1.130   1.000   1.000
GRID       15              1.140   1.000   1.000
GRID       16              1.150   1.000   1.000
GRID       17              1.160   1.000   1.000
GRID       18              1.170   1.000   1.000
GRID       19              1.180   1.000   1.000
GRID       20              1.190   1.000   1.000
$ ... 131 like lines cut

$----------Beam Elements----------
CBEAM          1       1       1       2      0.      0.      1.
CBEAM          2       1       2       3      0.      0.      1.
CBEAM          3       1       3       4      0.      0.      1.
CBEAM          4       1       4       5      0.      0.      1.
CBEAM          5       1       5       6      0.      0.      1.
CBEAM          6       1       6       7      0.      0.      1.
CBEAM          7       1       7       8      0.      0.      1.
CBEAM          8       1       8       9      0.      0.      1.
CBEAM          9       1       9      10      0.      0.      1.
CBEAM         10       1      10      11      0.      0.      1.
CBEAM         11       1      11      12      0.      0.      1.
CBEAM         12       1      12      13      0.      0.      1.
CBEAM         13       1      13      14      0.      0.      1.
CBEAM         14       1      14      15      0.      0.      1.
CBEAM         15       1      15      16      0.      0.      1.
CBEAM         16       1      16      17      0.      0.      1.
CBEAM         17       1      17      18      0.      0.      1.
CBEAM         18       1      18      19      0.      0.      1.
CBEAM         19       1      19      20      0.      0.      1.
CBEAM         20       1      20      21      0.      0.      1.
$ ... 130 like lines cut

$----------Boundary Conditions----------
SPC1    1       123456  1    
SPCADD  777     1    
