$
$ Elements and Element Properties for region : elements 1 to 30
PBEAML   1       1               BAR
*       .0508           .003175
*
$ Elements and Element Properties for region : elements 31 to 60
PBEAML   2       2               BAR
*       .0508           .003175
*
$ Elements and Element Properties for region : elements 61 to 90
PBEAML   3       3               BAR
*       .0508           .003175
*
$ Elements and Element Properties for region : elements 91 to 120
PBEAML   4       4               BAR
*       .0508           .003175
*
$ Elements and Element Properties for region : elements 121 to 150
PBEAML   5       5               BAR
*       .0508           .003175
*
$ Elements and Element Properties for region : elements 151 to 180
PBEAML   6       6               BAR
*       .0508           .003175
*
$ Elements and Element Properties for region : elements 181 to 210
PBEAML   7       7               BAR
*       .0508           .003175
*
$ Elements and Element Properties for region : elements 211 to 240
PBEAML   8       8               BAR
*       .0508           .003175
*
$ Elements and Element Properties for region : elements 241 to 270
PBEAML   9       9               BAR
*       .0508           .003175
*
$ Elements and Element Properties for region : elements 271 to 300
PBEAML   10       10               BAR
*       .0508           .003175
*
$ Elements and Element Properties for region : elements 301 to 330
PBEAML   11       11               BAR
*       .0508           .003175
*
$ Elements and Element Properties for region : elements 331 to 366
PBEAML   12       12               BAR
*       .0508           .003175
*
$ Pset: "beam_prop" will be imported as: "pbeaml.1"
CBEAM    1       1       1       2       0.      0.     1.
CBEAM    2       1       2       3       0.      0.     1.
CBEAM    3       1       3       4       0.      0.     1.
CBEAM    4       1       4       5       0.      0.     1.
CBEAM    5       1       5       6       0.      0.     1.
CBEAM    6       1       6       7       0.      0.     1.
CBEAM    7       1       7       8       0.      0.     1.
CBEAM    8       1       8       9       0.      0.     1.
CBEAM    9       1       9       10      0.      0.     1.
CBEAM    10      1       10      11      0.      0.     1.
CBEAM    11      1       11      12      0.      0.     1.
CBEAM    12      1       12      13      0.      0.     1.
CBEAM    13      1       13      14      0.      0.     1.
CBEAM    14      1       14      15      0.      0.     1.
CBEAM    15      1       15      16      0.      0.     1.
CBEAM    16      1       16      17      0.      0.     1.
CBEAM    17      1       17      18      0.      0.     1.
CBEAM    18      1       18      19      0.      0.     1.
CBEAM    19      1       19      20      0.      0.     1.
CBEAM    20      1       20      21      0.      0.     1.
$ ... 346 like lines cut
$ Referenced Material Records
$ Material Record : Aluminum
$ Description of Material : Date: 28-Oct-19           Time: 18:47:28
MAT1     1      6.99+10         .33     2700.
MAT1     2      6.99+10         .33     2700.
MAT1     3      6.99+10         .33     2700.
MAT1     4      6.99+10         .33     2700.
MAT1     5      6.99+10         .33     2700.
MAT1     6      6.99+10         .33     2700.
MAT1     7      6.99+10         .33     2700.
MAT1     8      6.99+10         .33     2700.
MAT1     9      6.99+10         .33     2700.
MAT1     10      6.99+10         .33     2700.
MAT1     11      6.99+10         .33     2700.
MAT1     12      6.99+10         .33     2700.
$ Nodes of the Entire Model
GRID     1               0.      0.      0.
GRID*    2                              .009993442334235 0.
*        0.
GRID*    3                              .019986884668469 0.
*        0.
GRID*    4                              .029980326071382 0.
*        0.
GRID*    5                              .039973769336939 0.
*        0.
GRID*    6                              .049967214465141 0.
*        0.
GRID*    7                              .059960652142763 0.
*        0.
GRID*    8                              .069954097270966 0.
*        0.
GRID*    9                              .079947538673878 0.
*        0.
GRID*    10                             .08994098007679  0.
*        0.
GRID*    11                             .099934421479702 0.
*        0.
GRID*    12                             .109927862882614 0.
*        0.
GRID*    13                             .119921304285526 0.
*        0.
GRID*    14                             .1299147605896   0.
*        0.
GRID*    15                             .139908194541931 0.
*        0.
GRID*    16                             .149901643395424 0.
*        0.
GRID*    17                             .159895092248917 0.
*        0.
GRID*    18                             .169888541102409 0.
*        0.
GRID*    19                             .179881989955902 0.
*        0.
GRID*    20                             .189875438809395 0.
*        0.
GRID*    21                             .199868872761726 0.
*        0.
$ ... 692 like lines cut
$
$$==============================================================================
$$               CONM2 for Accelerometers and Attachments 
$$==============================================================================
$$ U1 - U2
CONM2,70001,366, , 3.00E-3, 0., 0.0254, 0.
CONM2,70002,366, , 3.00E-3, 0.,-0.0254, 0.
$ U3 - U4
CONM2,70003,336, , 3.00E-3, 0., 0.0254, 0.
CONM2,70004,336, , 3.00E-3, 0.,-0.0254, 0.
$ U5 - U6
CONM2,70005,306, , 3.00E-3, 0., 0.0254, 0.
CONM2,70006,306, , 3.00E-3, 0.,-0.0254, 0.
$ U19 - U20
CONM2,70007,276, , 3.00E-3, 0., 0.0254, 0.
CONM2,70008,276, , 3.00E-3, 0.,-0.0254, 0.
$ U7 -U8
CONM2,70009,245, , 3.00E-3, 0., 0.0254, 0.
CONM2,70010,245, , 3.00E-3, 0.,-0.0254, 0.
$ U21 - U22
CONM2,70011,215, , 3.00E-3, 0., 0.0254, 0.
CONM2,70012,215, , 3.00E-3, 0.,-0.0254, 0.
$ U9 - U10
CONM2,70013,184, , 3.00E-3, 0., 0.0254, 0.
CONM2,70014,184, , 3.00E-3, 0.,-0.0254, 0.
$ U23 - U24
CONM2,70015,154, , 3.00E-3, 0., 0.0254, 0.
CONM2,70016,154, , 3.00E-3, 0.,-0.0254, 0.
$ U11 - U12
CONM2,70019,123, , 3.00E-3, 0., 0.0254, 0.
CONM2,70020,123, , 3.00E-3, 0.,-0.0254, 0.
$ U25 - U26
CONM2,70021, 93, , 3.00E-3, 0., 0.0254, 0.
CONM2,70022, 93, , 3.00E-3, 0.,-0.0254, 0.
$ U13 - U14
CONM2,70023, 62, , 3.00E-3, 0., 0.0254, 0.
CONM2,70024, 62, , 3.00E-3, 0.,-0.0254, 0.
$ U15 - U16
CONM2,70025, 32, , 3.00E-3, 0., 0.0254, 0.
CONM2,70026, 32, , 3.00E-3, 0.,-0.0254, 0.
$ U27 - U28
CONM2,70027,  1, , 3.00E-3, 0., 0.0254, 0.
CONM2,70028,  1, , 3.00E-3, 0.,-0.0254, 0.
$ T1 to T9
CONM2,70101,327, , 3.00E-3, 0., 0., 0.
CONM2,70102,286, , 3.00E-3, 0., 0., 0.
CONM2,70103,246, , 3.00E-3, 0., 0., 0.
CONM2,70104,205, , 3.00E-3, 0., 0., 0.
CONM2,70105,165, , 3.00E-3, 0., 0., 0.
CONM2,70106,124, , 3.00E-3, 0., 0., 0.
CONM2,70107, 83, , 3.00E-3, 0., 0., 0.
CONM2,70108, 43, , 3.00E-3, 0., 0., 0.
CONM2,70109,  2, , 3.00E-3, 0., 0., 0.
$
$ Attachments - screw-in connector
$ in right - in left
CONM2,70201,152, ,6.00E-3, 0., 0., 0.
CONM2,70202,214, ,6.00E-3, 0., 0., 0.
$