MAT1, 1, 7.20e+10, , 0.33, 2780.0,
PSHELL, 1, 1,1.31e-02, 1, , 1,
CORD2R         1       0   0.000   0.000   0.000  -1.000   0.000   0.000
           0.000   0.000   1.000
MAT1, 2, 7.20e+10, , 0.33, 2780.0,
PSHELL, 2, 2,1.18e-02, 2, , 2,
CORD2R         2       0   0.000   0.000   0.000  -1.000   0.000   0.000
           0.000   0.000   1.000
MAT1, 3, 7.20e+10, , 0.33, 2780.0,
PSHELL, 3, 3,9.46e-03, 3, , 3,
CORD2R         3       0   0.000   0.000   0.000  -1.000   0.000   0.000
           0.000   0.000   1.000
MAT1, 4, 7.20e+10, , 0.33, 2780.0,
PSHELL, 4, 4,7.85e-03, 4, , 4,
CORD2R         4       0   0.000   0.000   0.000  -1.000   0.000   0.000
           0.000   0.000   1.000
MAT1, 5, 7.20e+10, , 0.33, 2780.0,
PSHELL, 5, 5,1.11e-02, 5, , 5,
CORD2R         5       0   0.000   0.000   0.000  -1.000   0.000   0.000
           0.000   0.000   1.000
MAT1, 6, 7.20e+10, , 0.33, 2780.0,
PSHELL, 6, 6,7.26e-03, 6, , 6,
CORD2R         6       0   0.000   0.000   0.000  -1.000   0.000   0.000
           0.000   0.000   1.000
MAT1, 7, 7.20e+10, , 0.33, 2780.0,
PSHELL, 7, 7,7.65e-03, 7, , 7,
CORD2R         7       0   0.000   0.000   0.000  -1.000   0.000   0.000
           0.000   0.000   1.000
MAT1, 8, 7.20e+10, , 0.33, 2780.0,
PSHELL, 8, 8,8.53e-03, 8, , 8,
CORD2R         8       0   0.000   0.000   0.000  -1.000   0.000   0.000
           0.000   0.000   1.000
MAT1, 9, 7.20e+10, , 0.33, 2780.0,
PSHELL, 9, 9,8.16e-03, 9, , 9,
CORD2R         9       0   0.000   0.000   0.000  -1.000   0.000   0.000
           0.000   0.000   1.000
MAT1, 10, 7.20e+10, , 0.33, 2780.0,
PSHELL, 10, 10,7.52e-03, 10, , 10,
CORD2R        10       0   0.000   0.000   0.000  -1.000   0.000   0.000
           0.000   0.000   1.000
MAT1, 11, 7.20e+10, , 0.33, 2780.0,
PSHELL, 11, 11,7.11e-03, 11, , 11,
CORD2R        11       0   0.000   0.000   0.000  -1.000   0.000   0.000
           0.000   0.000   1.000
MAT1, 12, 7.20e+10, , 0.33, 2780.0,
PSHELL, 12, 12,6.77e-03, 12, , 12,
CORD2R        12       0   0.000   0.000   0.000  -1.000   0.000   0.000
           0.000   0.000   1.000
MAT1, 13, 7.20e+10, , 0.33, 2780.0,
PSHELL, 13, 13,6.03e-03, 13, , 13,
CORD2R        13       0   0.000   0.000   0.000  -1.000   0.000   0.000
           0.000   0.000   1.000
MAT1, 14, 7.20e+10, , 0.33, 2780.0,
PSHELL, 14, 14,5.71e-03, 14, , 14,
CORD2R        14       0   0.000   0.000   0.000  -1.000   0.000   0.000
           0.000   0.000   1.000
MAT1, 15, 7.20e+10, , 0.33, 2780.0,
PSHELL, 15, 15,6.15e-03, 15, , 15,
CORD2R        15       0   0.000   0.000   0.000  -1.000   0.000   0.000
           0.000   0.000   1.000
MAT1, 16, 7.20e+10, , 0.33, 2780.0,
PSHELL, 16, 16,7.28e-03, 16, , 16,
CORD2R        16       0   0.000   0.000   0.000  -1.000   0.000   0.000
           0.000   0.000   1.000
MAT1, 17, 7.20e+10, , 0.33, 2780.0,
PSHELL, 17, 17,6.60e-03, 17, , 17,
CORD2R        17       0   0.000   0.000   0.000  -1.000   0.000   0.000
           0.000   0.000   1.000
MAT1, 18, 7.20e+10, , 0.33, 2780.0,
PSHELL, 18, 18,6.32e-03, 18, , 18,
CORD2R        18       0   0.000   0.000   0.000  -1.000   0.000   0.000
           0.000   0.000   1.000
MAT1, 19, 7.20e+10, , 0.33, 2780.0,
PSHELL, 19, 19,8.94e-03, 19, , 19,
CORD2R        19       0   0.000   0.000   0.000  -1.000   0.000   0.000
           0.000   0.000   1.000
MAT1, 20, 7.20e+10, , 0.33, 2780.0,
PSHELL, 20, 20,6.15e-03, 20, , 20,
CORD2R        20       0   0.000   0.000   0.000  -1.000   0.000   0.000
           0.000   0.000   1.000
MAT1, 21, 7.20e+10, , 0.33, 2780.0,
PSHELL, 21, 21,5.94e-03, 21, , 21,
CORD2R        21       0   0.000   0.000   0.000  -1.000   0.000   0.000
           0.000   0.000   1.000
MAT1, 22, 7.20e+10, , 0.33, 2780.0,
PSHELL, 22, 22,5.83e-03, 22, , 22,
CORD2R        22       0   0.000   0.000   0.000  -1.000   0.000   0.000
           0.000   0.000   1.000
MAT1, 23, 7.20e+10, , 0.33, 2780.0,
PSHELL, 23, 23,5.81e-03, 23, , 23,
CORD2R        23       0   0.000   0.000   0.000  -1.000   0.000   0.000
           0.000   0.000   1.000
MAT1, 24, 7.20e+10, , 0.33, 2780.0,
PSHELL, 24, 24,5.84e-03, 24, , 24,
CORD2R        24       0   0.000   0.000   0.000  -1.000   0.000   0.000
           0.000   0.000   1.000
MAT1, 25, 7.20e+10, , 0.33, 2780.0,
PSHELL, 25, 25,5.93e-03, 25, , 25,
CORD2R        25       0   0.000   0.000   0.000  -1.000   0.000   0.000
           0.000   0.000   1.000
MAT1, 26, 7.20e+10, , 0.33, 2780.0,
PSHELL, 26, 26,6.03e-03, 26, , 26,
CORD2R        26       0   0.000   0.000   0.000  -1.000   0.000   0.000
           0.000   0.000   1.000
MAT1, 27, 7.20e+10, , 0.33, 2780.0,
PSHELL, 27, 27,6.08e-03, 27, , 27,
CORD2R        27       0   0.000   0.000   0.000  -1.000   0.000   0.000
           0.000   0.000   1.000
MAT1, 28, 7.20e+10, , 0.33, 2780.0,
PSHELL, 28, 28,6.13e-03, 28, , 28,
CORD2R        28       0   0.000   0.000   0.000  -1.000   0.000   0.000
           0.000   0.000   1.000
MAT1, 29, 7.20e+10, , 0.33, 2780.0,
PSHELL, 29, 29,6.10e-03, 29, , 29,
CORD2R        29       0   0.000   0.000   0.000  -1.000   0.000   0.000
           0.000   0.000   1.000
MAT1, 30, 7.20e+10, , 0.33, 2780.0,
PSHELL, 30, 30,6.03e-03, 30, , 30,
CORD2R        30       0   0.000   0.000   0.000  -1.000   0.000   0.000
           0.000   0.000   1.000
MAT1, 31, 7.20e+10, , 0.33, 2780.0,
PSHELL, 31, 31,5.93e-03, 31, , 31,
CORD2R        31       0   0.000   0.000   0.000  -1.000   0.000   0.000
           0.000   0.000   1.000
MAT1, 32, 7.20e+10, , 0.33, 2780.0,
PSHELL, 32, 32,5.88e-03, 32, , 32,
CORD2R        32       0   0.000   0.000   0.000  -1.000   0.000   0.000
           0.000   0.000   1.000
MAT1, 33, 7.20e+10, , 0.33, 2780.0,
PSHELL, 33, 33,5.71e-03, 33, , 33,
CORD2R        33       0   0.000   0.000   0.000  -1.000   0.000   0.000
           0.000   0.000   1.000
MAT1, 34, 7.20e+10, , 0.33, 2780.0,
PSHELL, 34, 34,5.89e-03, 34, , 34,
CORD2R        34       0   0.000   0.000   0.000  -1.000   0.000   0.000
           0.000   0.000   1.000
MAT1, 35, 7.20e+10, , 0.33, 2780.0,
PSHELL, 35, 35,7.28e-03, 35, , 35,
CORD2R        35       0   0.000   0.000   0.000  -1.000   0.000   0.000
           0.000   0.000   1.000
MAT1, 36, 7.20e+10, , 0.33, 2780.0,
PSHELL, 36, 36,1.11e-02, 36, , 36,
CORD2R        36       0   0.000   0.000   0.000  -1.000   0.000   0.000
           0.000   0.000   1.000
MAT1, 37, 7.20e+10, , 0.33, 2780.0,
PSHELL, 37, 37,9.26e-03, 37, , 37,
CORD2R        37       0   0.000   0.000   0.000  -1.000   0.000   0.000
           0.000   0.000   1.000
MAT1, 38, 7.20e+10, , 0.33, 2780.0,
PSHELL, 38, 38,1.09e-02, 38, , 38,
CORD2R        38       0   0.000   0.000   0.000  -1.000   0.000   0.000
           0.000   0.000   1.000
MAT1, 39, 7.20e+10, , 0.33, 2780.0,
PSHELL, 39, 39,1.21e-02, 39, , 39,
CORD2R        39       0   0.000   0.000   0.000  -1.000   0.000   0.000
           0.000   0.000   1.000
MAT1, 40, 7.20e+10, , 0.33, 2780.0,
PSHELL, 40, 40,1.11e-02, 40, , 40,
CORD2R        40       0   0.000   0.000   0.000  -1.000   0.000   0.000
           0.000   0.000   1.000
MAT1, 41, 7.20e+10, , 0.33, 2780.0,
PSHELL, 41, 41,7.28e-03, 41, , 41,
CORD2R        41       0   0.000   0.000   0.000  -1.000   0.000   0.000
           0.000   0.000   1.000
MAT1, 42, 7.20e+10, , 0.33, 2780.0,
PSHELL, 42, 42,5.46e-03, 42, , 42,
CORD2R        42       0   0.000   0.000   0.000  -1.000   0.000   0.000
           0.000   0.000   1.000
MAT1, 43, 7.20e+10, , 0.33, 2780.0,
PSHELL, 43, 43,5.28e-03, 43, , 43,
CORD2R        43       0   0.000   0.000   0.000  -1.000   0.000   0.000
           0.000   0.000   1.000
MAT1, 44, 7.20e+10, , 0.33, 2780.0,
PSHELL, 44, 44,5.28e-03, 44, , 44,
CORD2R        44       0   0.000   0.000   0.000  -1.000   0.000   0.000
           0.000   0.000   1.000
MAT1, 45, 7.20e+10, , 0.33, 2780.0,
PSHELL, 45, 45,5.28e-03, 45, , 45,
CORD2R        45       0   0.000   0.000   0.000  -1.000   0.000   0.000
           0.000   0.000   1.000
MAT1, 46, 7.20e+10, , 0.33, 2780.0,
PSHELL, 46, 46,5.28e-03, 46, , 46,
CORD2R        46       0   0.000   0.000   0.000  -1.000   0.000   0.000
           0.000   0.000   1.000
MAT1, 47, 7.20e+10, , 0.33, 2780.0,
PSHELL, 47, 47,5.28e-03, 47, , 47,
CORD2R        47       0   0.000   0.000   0.000  -1.000   0.000   0.000
           0.000   0.000   1.000
MAT1, 48, 7.20e+10, , 0.33, 2780.0,
PSHELL, 48, 48,5.28e-03, 48, , 48,
CORD2R        48       0   0.000   0.000   0.000  -1.000   0.000   0.000
           0.000   0.000   1.000
MAT1, 49, 7.20e+10, , 0.33, 2780.0,
PSHELL, 49, 49,5.28e-03, 49, , 49,
CORD2R        49       0   0.000   0.000   0.000  -1.000   0.000   0.000
           0.000   0.000   1.000
MAT1, 50, 7.20e+10, , 0.33, 2780.0,
PSHELL, 50, 50,5.28e-03, 50, , 50,
CORD2R        50       0   0.000   0.000   0.000  -1.000   0.000   0.000
           0.000   0.000   1.000
MAT1, 51, 7.20e+10, , 0.33, 2780.0,
PSHELL, 51, 51,5.28e-03, 51, , 51,
CORD2R        51       0   0.000   0.000   0.000  -1.000   0.000   0.000
           0.000   0.000   1.000
MAT1, 52, 7.20e+10, , 0.33, 2780.0,
PSHELL, 52, 52,5.28e-03, 52, , 52,
CORD2R        52       0   0.000   0.000   0.000  -1.000   0.000   0.000
           0.000   0.000   1.000
MAT1, 53, 7.20e+10, , 0.33, 2780.0,
PSHELL, 53, 53,5.28e-03, 53, , 53,
CORD2R        53       0   0.000   0.000   0.000  -1.000   0.000   0.000
           0.000   0.000   1.000
MAT1, 54, 7.20e+10, , 0.33, 2780.0,
PSHELL, 54, 54,5.28e-03, 54, , 54,
CORD2R        54       0   0.000   0.000   0.000  -1.000   0.000   0.000
           0.000   0.000   1.000
MAT1, 55, 7.20e+10, , 0.33, 2780.0,
PSHELL, 55, 55,5.28e-03, 55, , 55,
CORD2R        55       0   0.000   0.000   0.000  -1.000   0.000   0.000
           0.000   0.000   1.000
MAT1, 56, 7.20e+10, , 0.33, 2780.0,
PSHELL, 56, 56,5.28e-03, 56, , 56,
CORD2R        56       0   0.000   0.000   0.000  -1.000   0.000   0.000
           0.000   0.000   1.000
MAT1, 57, 7.20e+10, , 0.33, 2780.0,
PSHELL, 57, 57,7.03e-03, 57, , 57,
CORD2R        57       0   0.000   0.000   0.000  -1.000   0.000   0.000
           0.000   0.000   1.000
MAT1, 58, 7.20e+10, , 0.33, 2780.0,
PSHELL, 58, 58,6.37e-03, 58, , 58,
CORD2R        58       0   0.000   0.000   0.000  -1.000   0.000   0.000
           0.000   0.000   1.000
MAT1, 59, 7.20e+10, , 0.33, 2780.0,
PSHELL, 59, 59,6.62e-03, 59, , 59,
CORD2R        59       0   0.000   0.000   0.000  -1.000   0.000   0.000
           0.000   0.000   1.000
MAT1, 60, 7.20e+10, , 0.33, 2780.0,
PSHELL, 60, 60,9.43e-03, 60, , 60,
CORD2R        60       0   0.000   0.000   0.000  -1.000   0.000   0.000
           0.000   0.000   1.000
MAT1, 61, 7.20e+10, , 0.33, 2780.0,
PSHELL, 61, 61,1.33e-02, 61, , 61,
CORD2R        61       0   0.000   0.000   0.000  -1.000   0.000   0.000
           0.000   0.000   1.000
MAT1, 62, 7.20e+10, , 0.33, 2780.0,
PSHELL, 62, 62,1.46e-02, 62, , 62,
CORD2R        62       0   0.000   0.000   0.000  -1.000   0.000   0.000
           0.000   0.000   1.000
MAT1, 63, 7.20e+10, , 0.33, 2780.0,
PSHELL, 63, 63,1.08e-02, 63, , 63,
CORD2R        63       0   0.000   0.000   0.000  -1.000   0.000   0.000
           0.000   0.000   1.000
MAT1, 64, 7.20e+10, , 0.33, 2780.0,
PSHELL, 64, 64,7.11e-03, 64, , 64,
CORD2R        64       0   0.000   0.000   0.000  -1.000   0.000   0.000
           0.000   0.000   1.000
MAT1, 65, 7.20e+10, , 0.33, 2780.0,
PSHELL, 65, 65,7.28e-03, 65, , 65,
CORD2R        65       0   0.000   0.000   0.000  -1.000   0.000   0.000
           0.000   0.000   1.000
MAT1, 66, 7.20e+10, , 0.33, 2780.0,
PSHELL, 66, 66,5.28e-03, 66, , 66,
CORD2R        66       0   0.000   0.000   0.000  -1.000   0.000   0.000
           0.000   0.000   1.000
MAT1, 67, 7.20e+10, , 0.33, 2780.0,
PSHELL, 67, 67,5.28e-03, 67, , 67,
CORD2R        67       0   0.000   0.000   0.000  -1.000   0.000   0.000
           0.000   0.000   1.000
MAT1, 68, 7.20e+10, , 0.33, 2780.0,
PSHELL, 68, 68,5.42e-03, 68, , 68,
CORD2R        68       0   0.000   0.000   0.000  -1.000   0.000   0.000
           0.000   0.000   1.000
MAT1, 69, 7.20e+10, , 0.33, 2780.0,
PSHELL, 69, 69,5.79e-03, 69, , 69,
CORD2R        69       0   0.000   0.000   0.000  -1.000   0.000   0.000
           0.000   0.000   1.000
MAT1, 70, 7.20e+10, , 0.33, 2780.0,
PSHELL, 70, 70,6.16e-03, 70, , 70,
CORD2R        70       0   0.000   0.000   0.000  -1.000   0.000   0.000
           0.000   0.000   1.000
MAT1, 71, 7.20e+10, , 0.33, 2780.0,
PSHELL, 71, 71,6.98e-03, 71, , 71,
CORD2R        71       0   0.000   0.000   0.000  -1.000   0.000   0.000
           0.000   0.000   1.000
MAT1, 72, 7.20e+10, , 0.33, 2780.0,
PSHELL, 72, 72,8.47e-03, 72, , 72,
CORD2R        72       0   0.000   0.000   0.000  -1.000   0.000   0.000
           0.000   0.000   1.000
MAT1, 73, 7.20e+10, , 0.33, 2780.0,
PSHELL, 73, 73,1.23e-02, 73, , 73,
CORD2R        73       0   0.000   0.000   0.000  -1.000   0.000   0.000
           0.000   0.000   1.000
MAT1, 74, 7.20e+10, , 0.33, 2780.0,
PSHELL, 74, 74,1.18e-02, 74, , 74,
CORD2R        74       0   0.000   0.000   0.000  -1.000   0.000   0.000
           0.000   0.000   1.000
MAT1, 75, 7.20e+10, , 0.33, 2780.0,
PSHELL, 75, 75,7.93e-03, 75, , 75,
CORD2R        75       0   0.000   0.000   0.000  -1.000   0.000   0.000
           0.000   0.000   1.000
MAT1, 76, 7.20e+10, , 0.33, 2780.0,
PSHELL, 76, 76,7.25e-03, 76, , 76,
CORD2R        76       0   0.000   0.000   0.000  -1.000   0.000   0.000
           0.000   0.000   1.000
MAT1, 77, 7.20e+10, , 0.33, 2780.0,
PSHELL, 77, 77,5.84e-03, 77, , 77,
CORD2R        77       0   0.000   0.000   0.000  -1.000   0.000   0.000
           0.000   0.000   1.000
MAT1, 78, 7.20e+10, , 0.33, 2780.0,
PSHELL, 78, 78,7.28e-03, 78, , 78,
CORD2R        78       0   0.000   0.000   0.000  -1.000   0.000   0.000
           0.000   0.000   1.000
MAT1, 79, 7.20e+10, , 0.33, 2780.0,
PSHELL, 79, 79,6.52e-03, 79, , 79,
CORD2R        79       0   0.000   0.000   0.000  -1.000   0.000   0.000
           0.000   0.000   1.000
MAT1, 80, 7.20e+10, , 0.33, 2780.0,
PSHELL, 80, 80,6.33e-03, 80, , 80,
CORD2R        80       0   0.000   0.000   0.000  -1.000   0.000   0.000
           0.000   0.000   1.000
MAT1, 81, 7.20e+10, , 0.33, 2780.0,
PSHELL, 81, 81,9.29e-03, 81, , 81,
CORD2R        81       0   0.000   0.000   0.000  -1.000   0.000   0.000
           0.000   0.000   1.000
MAT1, 82, 7.20e+10, , 0.33, 2780.0,
PSHELL, 82, 82,7.28e-03, 82, , 82,
CORD2R        82       0   0.000   0.000   0.000  -1.000   0.000   0.000
           0.000   0.000   1.000
MAT1, 83, 7.20e+10, , 0.33, 2780.0,
PSHELL, 83, 83,1.11e-02, 83, , 83,
CORD2R        83       0   0.000   0.000   0.000  -1.000   0.000   0.000
           0.000   0.000   1.000
MAT1, 84, 7.20e+10, , 0.33, 2780.0,
PSHELL, 84, 84,7.28e-03, 84, , 84,
CORD2R        84       0   0.000   0.000   0.000  -1.000   0.000   0.000
           0.000   0.000   1.000
MAT1, 85, 7.20e+10, , 0.33, 2780.0,
PSHELL, 85, 85,8.79e-03, 85, , 85,
CORD2R        85       0   0.000   0.000   0.000  -1.000   0.000   0.000
           0.000   0.000   1.000
MAT1, 86, 7.20e+10, , 0.33, 2780.0,
PSHELL, 86, 86,6.07e-03, 86, , 86,
CORD2R        86       0   0.000   0.000   0.000  -1.000   0.000   0.000
           0.000   0.000   1.000
MAT1, 87, 7.20e+10, , 0.33, 2780.0,
PSHELL, 87, 87,7.28e-03, 87, , 87,
CORD2R        87       0   0.000   0.000   0.000  -1.000   0.000   0.000
           0.000   0.000   1.000
MAT1, 88, 7.20e+10, , 0.33, 2780.0,
PSHELL, 88, 88,5.84e-03, 88, , 88,
CORD2R        88       0   0.000   0.000   0.000  -1.000   0.000   0.000
           0.000   0.000   1.000
MAT1, 89, 7.20e+10, , 0.33, 2780.0,
PSHELL, 89, 89,5.75e-03, 89, , 89,
CORD2R        89       0   0.000   0.000   0.000  -1.000   0.000   0.000
           0.000   0.000   1.000
MAT1, 90, 7.20e+10, , 0.33, 2780.0,
PSHELL, 90, 90,5.62e-03, 90, , 90,
CORD2R        90       0   0.000   0.000   0.000  -1.000   0.000   0.000
           0.000   0.000   1.000
MAT1, 91, 7.20e+10, , 0.33, 2780.0,
PSHELL, 91, 91,5.65e-03, 91, , 91,
CORD2R        91       0   0.000   0.000   0.000  -1.000   0.000   0.000
           0.000   0.000   1.000
MAT1, 92, 7.20e+10, , 0.33, 2780.0,
PSHELL, 92, 92,5.69e-03, 92, , 92,
CORD2R        92       0   0.000   0.000   0.000  -1.000   0.000   0.000
           0.000   0.000   1.000
MAT1, 93, 7.20e+10, , 0.33, 2780.0,
PSHELL, 93, 93,7.49e-03, 93, , 93,
CORD2R        93       0   0.000   0.000   0.000  -1.000   0.000   0.000
           0.000   0.000   1.000
MAT1, 94, 7.20e+10, , 0.33, 2780.0,
PSHELL, 94, 94,5.60e-03, 94, , 94,
CORD2R        94       0   0.000   0.000   0.000  -1.000   0.000   0.000
           0.000   0.000   1.000
MAT1, 95, 7.20e+10, , 0.33, 2780.0,
PSHELL, 95, 95,5.52e-03, 95, , 95,
CORD2R        95       0   0.000   0.000   0.000  -1.000   0.000   0.000
           0.000   0.000   1.000
MAT1, 96, 7.20e+10, , 0.33, 2780.0,
PSHELL, 96, 96,7.28e-03, 96, , 96,
CORD2R        96       0   0.000   0.000   0.000  -1.000   0.000   0.000
           0.000   0.000   1.000
MAT1, 97, 7.20e+10, , 0.33, 2780.0,
PSHELL, 97, 97,5.38e-03, 97, , 97,
CORD2R        97       0   0.000   0.000   0.000  -1.000   0.000   0.000
           0.000   0.000   1.000
MAT1, 98, 7.20e+10, , 0.33, 2780.0,
PSHELL, 98, 98,5.30e-03, 98, , 98,
CORD2R        98       0   0.000   0.000   0.000  -1.000   0.000   0.000
           0.000   0.000   1.000
MAT1, 99, 7.20e+10, , 0.33, 2780.0,
PSHELL, 99, 99,5.28e-03, 99, , 99,
CORD2R        99       0   0.000   0.000   0.000  -1.000   0.000   0.000
           0.000   0.000   1.000
MAT1, 100, 7.20e+10, , 0.33, 2780.0,
PSHELL, 100, 100,5.28e-03, 100, , 100,
CORD2R       100       0   0.000   0.000   0.000  -1.000   0.000   0.000
           0.000   0.000   1.000
MAT1, 101, 7.20e+10, , 0.33, 2780.0,
PSHELL, 101, 101,5.28e-03, 101, , 101,
CORD2R       101       0   0.000   0.000   0.000  -1.000   0.000   0.000
           0.000   0.000   1.000
MAT1, 102, 7.20e+10, , 0.33, 2780.0,
PSHELL, 102, 102,5.28e-03, 102, , 102,
CORD2R       102       0   0.000   0.000   0.000  -1.000   0.000   0.000
           0.000   0.000   1.000
MAT1, 103, 7.20e+10, , 0.33, 2780.0,
PSHELL, 103, 103,5.28e-03, 103, , 103,
CORD2R       103       0   0.000   0.000   0.000  -1.000   0.000   0.000
           0.000   0.000   1.000
MAT1, 104, 7.20e+10, , 0.33, 2780.0,
PSHELL, 104, 104,5.28e-03, 104, , 104,
CORD2R       104       0   0.000   0.000   0.000  -1.000   0.000   0.000
           0.000   0.000   1.000
MAT1, 105, 7.20e+10, , 0.33, 2780.0,
PSHELL, 105, 105,5.28e-03, 105, , 105,
CORD2R       105       0   0.000   0.000   0.000  -1.000   0.000   0.000
           0.000   0.000   1.000
MAT1, 106, 7.20e+10, , 0.33, 2780.0,
PSHELL, 106, 106,5.28e-03, 106, , 106,
CORD2R       106       0   0.000   0.000   0.000  -1.000   0.000   0.000
           0.000   0.000   1.000
MAT1, 107, 7.20e+10, , 0.33, 2780.0,
PSHELL, 107, 107,5.28e-03, 107, , 107,
CORD2R       107       0   0.000   0.000   0.000  -1.000   0.000   0.000
           0.000   0.000   1.000
MAT1, 108, 7.20e+10, , 0.33, 2780.0,
PSHELL, 108, 108,5.28e-03, 108, , 108,
CORD2R       108       0   0.000   0.000   0.000  -1.000   0.000   0.000
           0.000   0.000   1.000
MAT1, 109, 7.20e+10, , 0.33, 2780.0,
PSHELL, 109, 109,5.28e-03, 109, , 109,
CORD2R       109       0   0.000   0.000   0.000  -1.000   0.000   0.000
           0.000   0.000   1.000
MAT1, 110, 7.20e+10, , 0.33, 2780.0,
PSHELL, 110, 110,5.28e-03, 110, , 110,
CORD2R       110       0   0.000   0.000   0.000  -1.000   0.000   0.000
           0.000   0.000   1.000
MAT1, 111, 7.20e+10, , 0.33, 2780.0,
PSHELL, 111, 111,5.70e-03, 111, , 111,
CORD2R       111       0   0.000   0.000   0.000  -1.000   0.000   0.000
           0.000   0.000   1.000
MAT1, 112, 7.20e+10, , 0.33, 2780.0,
PSHELL, 112, 112,5.02e-03, 112, , 112,
CORD2R       112       0   0.000   0.000   0.000  -1.000   0.000   0.000
           0.000   0.000   1.000
MAT1, 113, 7.20e+10, , 0.33, 2780.0,
PSHELL, 113, 113,5.72e-03, 113, , 113,
CORD2R       113       0   0.000   0.000   0.000  -1.000   0.000   0.000
           0.000   0.000   1.000
MAT1, 114, 7.20e+10, , 0.33, 2780.0,
PSHELL, 114, 114,6.07e-03, 114, , 114,
CORD2R       114       0   0.000   0.000   0.000  -1.000   0.000   0.000
           0.000   0.000   1.000
MAT1, 115, 7.20e+10, , 0.33, 2780.0,
PSHELL, 115, 115,4.87e-03, 115, , 115,
CORD2R       115       0   0.000   0.000   0.000  -1.000   0.000   0.000
           0.000   0.000   1.000
MAT1, 116, 7.20e+10, , 0.33, 2780.0,
PSHELL, 116, 116,4.87e-03, 116, , 116,
CORD2R       116       0   0.000   0.000   0.000  -1.000   0.000   0.000
           0.000   0.000   1.000
MAT1, 117, 7.20e+10, , 0.33, 2780.0,
PSHELL, 117, 117,4.87e-03, 117, , 117,
CORD2R       117       0   0.000   0.000   0.000  -1.000   0.000   0.000
           0.000   0.000   1.000
MAT1, 118, 7.20e+10, , 0.33, 2780.0,
PSHELL, 118, 118,4.96e-03, 118, , 118,
CORD2R       118       0   0.000   0.000   0.000  -1.000   0.000   0.000
           0.000   0.000   1.000
MAT1, 119, 7.20e+10, , 0.33, 2780.0,
PSHELL, 119, 119,5.11e-03, 119, , 119,
CORD2R       119       0   0.000   0.000   0.000  -1.000   0.000   0.000
           0.000   0.000   1.000
MAT1, 120, 7.20e+10, , 0.33, 2780.0,
PSHELL, 120, 120,5.13e-03, 120, , 120,
CORD2R       120       0   0.000   0.000   0.000  -1.000   0.000   0.000
           0.000   0.000   1.000
MAT1, 121, 7.20e+10, , 0.33, 2780.0,
PSHELL, 121, 121,5.11e-03, 121, , 121,
CORD2R       121       0   0.000   0.000   0.000  -1.000   0.000   0.000
           0.000   0.000   1.000
MAT1, 122, 7.20e+10, , 0.33, 2780.0,
PSHELL, 122, 122,5.16e-03, 122, , 122,
CORD2R       122       0   0.000   0.000   0.000  -1.000   0.000   0.000
           0.000   0.000   1.000
MAT1, 123, 7.20e+10, , 0.33, 2780.0,
PSHELL, 123, 123,5.09e-03, 123, , 123,
CORD2R       123       0   0.000   0.000   0.000  -1.000   0.000   0.000
           0.000   0.000   1.000
MAT1, 124, 7.20e+10, , 0.33, 2780.0,
PSHELL, 124, 124,4.92e-03, 124, , 124,
CORD2R       124       0   0.000   0.000   0.000  -1.000   0.000   0.000
           0.000   0.000   1.000
MAT1, 125, 7.20e+10, , 0.33, 2780.0,
PSHELL, 125, 125,4.87e-03, 125, , 125,
CORD2R       125       0   0.000   0.000   0.000  -1.000   0.000   0.000
           0.000   0.000   1.000
MAT1, 126, 7.20e+10, , 0.33, 2780.0,
PSHELL, 126, 126,4.87e-03, 126, , 126,
CORD2R       126       0   0.000   0.000   0.000  -1.000   0.000   0.000
           0.000   0.000   1.000
MAT1, 127, 7.20e+10, , 0.33, 2780.0,
PSHELL, 127, 127,6.64e-03, 127, , 127,
CORD2R       127       0   0.000   0.000   0.000  -1.000   0.000   0.000
           0.000   0.000   1.000
MAT1, 128, 7.20e+10, , 0.33, 2780.0,
PSHELL, 128, 128,5.31e-03, 128, , 128,
CORD2R       128       0   0.000   0.000   0.000  -1.000   0.000   0.000
           0.000   0.000   1.000
MAT1, 129, 7.20e+10, , 0.33, 2780.0,
PSHELL, 129, 129,5.07e-03, 129, , 129,
CORD2R       129       0   0.000   0.000   0.000  -1.000   0.000   0.000
           0.000   0.000   1.000
MAT1, 130, 7.20e+10, , 0.33, 2780.0,
PSHELL, 130, 130,4.93e-03, 130, , 130,
CORD2R       130       0   0.000   0.000   0.000  -1.000   0.000   0.000
           0.000   0.000   1.000
MAT1, 131, 7.20e+10, , 0.33, 2780.0,
PSHELL, 131, 131,4.87e-03, 131, , 131,
CORD2R       131       0   0.000   0.000   0.000  -1.000   0.000   0.000
           0.000   0.000   1.000
MAT1, 132, 7.20e+10, , 0.33, 2780.0,
PSHELL, 132, 132,4.87e-03, 132, , 132,
CORD2R       132       0   0.000   0.000   0.000  -1.000   0.000   0.000
           0.000   0.000   1.000
MAT1, 133, 7.20e+10, , 0.33, 2780.0,
PSHELL, 133, 133,4.87e-03, 133, , 133,
CORD2R       133       0   0.000   0.000   0.000  -1.000   0.000   0.000
           0.000   0.000   1.000
MAT1, 134, 7.20e+10, , 0.33, 2780.0,
PSHELL, 134, 134,4.87e-03, 134, , 134,
CORD2R       134       0   0.000   0.000   0.000  -1.000   0.000   0.000
           0.000   0.000   1.000
MAT1, 135, 7.20e+10, , 0.33, 2780.0,
PSHELL, 135, 135,4.87e-03, 135, , 135,
CORD2R       135       0   0.000   0.000   0.000  -1.000   0.000   0.000
           0.000   0.000   1.000
MAT1, 136, 7.20e+10, , 0.33, 2780.0,
PSHELL, 136, 136,4.87e-03, 136, , 136,
CORD2R       136       0   0.000   0.000   0.000  -1.000   0.000   0.000
           0.000   0.000   1.000
MAT1, 137, 7.20e+10, , 0.33, 2780.0,
PSHELL, 137, 137,4.87e-03, 137, , 137,
CORD2R       137       0   0.000   0.000   0.000  -1.000   0.000   0.000
           0.000   0.000   1.000
MAT1, 138, 7.20e+10, , 0.33, 2780.0,
PSHELL, 138, 138,4.87e-03, 138, , 138,
CORD2R       138       0   0.000   0.000   0.000  -1.000   0.000   0.000
           0.000   0.000   1.000
MAT1, 139, 7.20e+10, , 0.33, 2780.0,
PSHELL, 139, 139,4.87e-03, 139, , 139,
CORD2R       139       0   0.000   0.000   0.000  -1.000   0.000   0.000
           0.000   0.000   1.000
MAT1, 140, 7.20e+10, , 0.33, 2780.0,
PSHELL, 140, 140,4.87e-03, 140, , 140,
CORD2R       140       0   0.000   0.000   0.000  -1.000   0.000   0.000
           0.000   0.000   1.000
MAT1, 141, 7.20e+10, , 0.33, 2780.0,
PSHELL, 141, 141,4.87e-03, 141, , 141,
CORD2R       141       0   0.000   0.000   0.000  -1.000   0.000   0.000
           0.000   0.000   1.000
MAT1, 142, 7.20e+10, , 0.33, 2780.0,
PSHELL, 142, 142,4.87e-03, 142, , 142,
CORD2R       142       0   0.000   0.000   0.000  -1.000   0.000   0.000
           0.000   0.000   1.000
MAT1, 143, 7.20e+10, , 0.33, 2780.0,
PSHELL, 143, 143,4.87e-03, 143, , 143,
CORD2R       143       0   0.000   0.000   0.000  -1.000   0.000   0.000
           0.000   0.000   1.000
MAT1, 144, 7.20e+10, , 0.33, 2780.0,
PSHELL, 144, 144,4.87e-03, 144, , 144,
CORD2R       144       0   0.000   0.000   0.000  -1.000   0.000   0.000
           0.000   0.000   1.000
MAT1, 145, 7.20e+10, , 0.33, 2780.0,
PSHELL, 145, 145,4.87e-03, 145, , 145,
CORD2R       145       0   0.000   0.000   0.000  -1.000   0.000   0.000
           0.000   0.000   1.000
MAT1, 146, 7.20e+10, , 0.33, 2780.0,
PSHELL, 146, 146,4.87e-03, 146, , 146,
CORD2R       146       0   0.000   0.000   0.000  -1.000   0.000   0.000
           0.000   0.000   1.000
MAT1, 147, 7.20e+10, , 0.33, 2780.0,
PSHELL, 147, 147,4.87e-03, 147, , 147,
CORD2R       147       0   0.000   0.000   0.000  -1.000   0.000   0.000
           0.000   0.000   1.000
MAT1, 148, 7.20e+10, , 0.33, 2780.0,
PSHELL, 148, 148,4.87e-03, 148, , 148,
CORD2R       148       0   0.000   0.000   0.000  -1.000   0.000   0.000
           0.000   0.000   1.000
MAT1, 149, 7.20e+10, , 0.33, 2780.0,
PSHELL, 149, 149,4.87e-03, 149, , 149,
CORD2R       149       0   0.000   0.000   0.000  -1.000   0.000   0.000
           0.000   0.000   1.000
MAT1, 150, 7.20e+10, , 0.33, 2780.0,
PSHELL, 150, 150,4.87e-03, 150, , 150,
CORD2R       150       0   0.000   0.000   0.000  -1.000   0.000   0.000
           0.000   0.000   1.000
MAT1, 151, 7.20e+10, , 0.33, 2780.0,
PSHELL, 151, 151,4.87e-03, 151, , 151,
CORD2R       151       0   0.000   0.000   0.000  -1.000   0.000   0.000
           0.000   0.000   1.000
MAT1, 152, 7.20e+10, , 0.33, 2780.0,
PSHELL, 152, 152,4.87e-03, 152, , 152,
CORD2R       152       0   0.000   0.000   0.000  -1.000   0.000   0.000
           0.000   0.000   1.000
MAT1, 153, 7.20e+10, , 0.33, 2780.0,
PSHELL, 153, 153,4.87e-03, 153, , 153,
CORD2R       153       0   0.000   0.000   0.000  -1.000   0.000   0.000
           0.000   0.000   1.000
MAT1, 154, 7.20e+10, , 0.33, 2780.0,
PSHELL, 154, 154,4.87e-03, 154, , 154,
CORD2R       154       0   0.000   0.000   0.000  -1.000   0.000   0.000
           0.000   0.000   1.000
MAT1, 155, 7.20e+10, , 0.33, 2780.0,
PSHELL, 155, 155,4.87e-03, 155, , 155,
CORD2R       155       0   0.000   0.000   0.000  -1.000   0.000   0.000
           0.000   0.000   1.000
MAT1, 156, 7.20e+10, , 0.33, 2780.0,
PSHELL, 156, 156,4.87e-03, 156, , 156,
CORD2R       156       0   0.000   0.000   0.000  -1.000   0.000   0.000
           0.000   0.000   1.000
MAT1, 157, 7.20e+10, , 0.33, 2780.0,
PSHELL, 157, 157,4.87e-03, 157, , 157,
CORD2R       157       0   0.000   0.000   0.000  -1.000   0.000   0.000
           0.000   0.000   1.000
MAT1, 158, 7.20e+10, , 0.33, 2780.0,
PSHELL, 158, 158,4.87e-03, 158, , 158,
CORD2R       158       0   0.000   0.000   0.000  -1.000   0.000   0.000
           0.000   0.000   1.000
MAT1, 159, 7.20e+10, , 0.33, 2780.0,
PSHELL, 159, 159,4.87e-03, 159, , 159,
CORD2R       159       0   0.000   0.000   0.000  -1.000   0.000   0.000
           0.000   0.000   1.000
MAT1, 160, 7.20e+10, , 0.33, 2780.0,
PSHELL, 160, 160,4.87e-03, 160, , 160,
CORD2R       160       0   0.000   0.000   0.000  -1.000   0.000   0.000
           0.000   0.000   1.000
MAT1, 161, 7.20e+10, , 0.33, 2780.0,
PSHELL, 161, 161,4.87e-03, 161, , 161,
CORD2R       161       0   0.000   0.000   0.000  -1.000   0.000   0.000
           0.000   0.000   1.000
MAT1, 162, 7.20e+10, , 0.33, 2780.0,
PSHELL, 162, 162,4.87e-03, 162, , 162,
CORD2R       162       0   0.000   0.000   0.000  -1.000   0.000   0.000
           0.000   0.000   1.000
MAT1, 163, 7.20e+10, , 0.33, 2780.0,
PSHELL, 163, 163,4.87e-03, 163, , 163,
CORD2R       163       0   0.000   0.000   0.000  -1.000   0.000   0.000
           0.000   0.000   1.000
MAT1, 164, 7.20e+10, , 0.33, 2780.0,
PSHELL, 164, 164,4.87e-03, 164, , 164,
CORD2R       164       0   0.000   0.000   0.000  -1.000   0.000   0.000
           0.000   0.000   1.000
MAT1, 165, 7.20e+10, , 0.33, 2780.0,
PSHELL, 165, 165,4.87e-03, 165, , 165,
CORD2R       165       0   0.000   0.000   0.000  -1.000   0.000   0.000
           0.000   0.000   1.000
MAT1, 166, 7.20e+10, , 0.33, 2780.0,
PSHELL, 166, 166,4.87e-03, 166, , 166,
CORD2R       166       0   0.000   0.000   0.000  -1.000   0.000   0.000
           0.000   0.000   1.000
MAT1, 167, 7.20e+10, , 0.33, 2780.0,
PSHELL, 167, 167,4.87e-03, 167, , 167,
CORD2R       167       0   0.000   0.000   0.000  -1.000   0.000   0.000
           0.000   0.000   1.000
MAT1, 168, 7.20e+10, , 0.33, 2780.0,
PSHELL, 168, 168,4.60e-03, 168, , 168,
CORD2R       168       0   0.000   0.000   0.000   0.000   0.000   0.574
           0.574   0.819   0.000
MAT1, 169, 7.20e+10, , 0.33, 2780.0,
PSHELL, 169, 169,4.66e-03, 169, , 169,
CORD2R       169       0   0.000   0.000   0.000   0.000   0.000   0.574
           0.574   0.819   0.000
MAT1, 170, 7.20e+10, , 0.33, 2780.0,
PSHELL, 170, 170,4.66e-03, 170, , 170,
CORD2R       170       0   0.000   0.000   0.000   0.000   0.000   0.574
           0.574   0.819   0.000
MAT1, 171, 7.20e+10, , 0.33, 2780.0,
PSHELL, 171, 171,4.64e-03, 171, , 171,
CORD2R       171       0   0.000   0.000   0.000   0.000   0.000   0.574
           0.574   0.819   0.000
MAT1, 172, 7.20e+10, , 0.33, 2780.0,
PSHELL, 172, 172,5.18e-03, 172, , 172,
CORD2R       172       0   0.000   0.000   0.000   0.000   0.000   0.574
           0.574   0.819   0.000
MAT1, 173, 7.20e+10, , 0.33, 2780.0,
PSHELL, 173, 173,4.63e-03, 173, , 173,
CORD2R       173       0   0.000   0.000   0.000   0.000   0.000   0.574
           0.574   0.819   0.000
MAT1, 174, 7.20e+10, , 0.33, 2780.0,
PSHELL, 174, 174,5.69e-03, 174, , 174,
CORD2R       174       0   0.000   0.000   0.000   0.000   0.000   0.574
           0.574   0.819   0.000
MAT1, 175, 7.20e+10, , 0.33, 2780.0,
PSHELL, 175, 175,4.61e-03, 175, , 175,
CORD2R       175       0   0.000   0.000   0.000   0.000   0.000   0.574
           0.574   0.819   0.000
MAT1, 176, 7.20e+10, , 0.33, 2780.0,
PSHELL, 176, 176,6.20e-03, 176, , 176,
CORD2R       176       0   0.000   0.000   0.000   0.000   0.000   0.574
           0.574   0.819   0.000
MAT1, 177, 7.20e+10, , 0.33, 2780.0,
PSHELL, 177, 177,4.98e-03, 177, , 177,
CORD2R       177       0   0.000   0.000   0.000   0.000   0.000   0.574
           0.574   0.819   0.000
MAT1, 178, 7.20e+10, , 0.33, 2780.0,
PSHELL, 178, 178,6.75e-03, 178, , 178,
CORD2R       178       0   0.000   0.000   0.000   0.000   0.000   0.574
           0.574   0.819   0.000
MAT1, 179, 7.20e+10, , 0.33, 2780.0,
PSHELL, 179, 179,5.46e-03, 179, , 179,
CORD2R       179       0   0.000   0.000   0.000   0.000   0.000   0.574
           0.574   0.819   0.000
MAT1, 180, 7.20e+10, , 0.33, 2780.0,
PSHELL, 180, 180,7.45e-03, 180, , 180,
CORD2R       180       0   0.000   0.000   0.000   0.000   0.000   0.574
           0.574   0.819   0.000
MAT1, 181, 7.20e+10, , 0.33, 2780.0,
PSHELL, 181, 181,5.94e-03, 181, , 181,
CORD2R       181       0   0.000   0.000   0.000   0.000   0.000   0.574
           0.574   0.819   0.000
MAT1, 182, 7.20e+10, , 0.33, 2780.0,
PSHELL, 182, 182,8.13e-03, 182, , 182,
CORD2R       182       0   0.000   0.000   0.000   0.000   0.000   0.574
           0.574   0.819   0.000
MAT1, 183, 7.20e+10, , 0.33, 2780.0,
PSHELL, 183, 183,6.43e-03, 183, , 183,
CORD2R       183       0   0.000   0.000   0.000   0.000   0.000   0.574
           0.574   0.819   0.000
MAT1, 184, 7.20e+10, , 0.33, 2780.0,
PSHELL, 184, 184,8.76e-03, 184, , 184,
CORD2R       184       0   0.000   0.000   0.000   0.000   0.000   0.574
           0.574   0.819   0.000
MAT1, 185, 7.20e+10, , 0.33, 2780.0,
PSHELL, 185, 185,7.17e-03, 185, , 185,
CORD2R       185       0   0.000   0.000   0.000   0.000   0.000   0.574
           0.574   0.819   0.000
MAT1, 186, 7.20e+10, , 0.33, 2780.0,
PSHELL, 186, 186,9.38e-03, 186, , 186,
CORD2R       186       0   0.000   0.000   0.000   0.000   0.000   0.574
           0.574   0.819   0.000
MAT1, 187, 7.20e+10, , 0.33, 2780.0,
PSHELL, 187, 187,7.95e-03, 187, , 187,
CORD2R       187       0   0.000   0.000   0.000   0.000   0.000   0.574
           0.574   0.819   0.000
MAT1, 188, 7.20e+10, , 0.33, 2780.0,
PSHELL, 188, 188,9.98e-03, 188, , 188,
CORD2R       188       0   0.000   0.000   0.000   0.000   0.000   0.574
           0.574   0.819   0.000
MAT1, 189, 7.20e+10, , 0.33, 2780.0,
PSHELL, 189, 189,8.73e-03, 189, , 189,
CORD2R       189       0   0.000   0.000   0.000   0.000   0.000   0.574
           0.574   0.819   0.000
MAT1, 190, 7.20e+10, , 0.33, 2780.0,
PSHELL, 190, 190,1.06e-02, 190, , 190,
CORD2R       190       0   0.000   0.000   0.000   0.000   0.000   0.574
           0.574   0.819   0.000
MAT1, 191, 7.20e+10, , 0.33, 2780.0,
PSHELL, 191, 191,9.49e-03, 191, , 191,
CORD2R       191       0   0.000   0.000   0.000   0.000   0.000   0.574
           0.574   0.819   0.000
MAT1, 192, 7.20e+10, , 0.33, 2780.0,
PSHELL, 192, 192,1.12e-02, 192, , 192,
CORD2R       192       0   0.000   0.000   0.000   0.000   0.000   0.574
           0.574   0.819   0.000
MAT1, 193, 7.20e+10, , 0.33, 2780.0,
PSHELL, 193, 193,1.03e-02, 193, , 193,
CORD2R       193       0   0.000   0.000   0.000   0.000   0.000   0.574
           0.574   0.819   0.000
MAT1, 194, 7.20e+10, , 0.33, 2780.0,
PSHELL, 194, 194,1.19e-02, 194, , 194,
CORD2R       194       0   0.000   0.000   0.000   0.000   0.000   0.574
           0.574   0.819   0.000
MAT1, 195, 7.20e+10, , 0.33, 2780.0,
PSHELL, 195, 195,1.10e-02, 195, , 195,
CORD2R       195       0   0.000   0.000   0.000   0.000   0.000   0.574
           0.574   0.819   0.000
MAT1, 196, 7.20e+10, , 0.33, 2780.0,
PSHELL, 196, 196,1.27e-02, 196, , 196,
CORD2R       196       0   0.000   0.000   0.000   0.000   0.000   0.574
           0.574   0.819   0.000
MAT1, 197, 7.20e+10, , 0.33, 2780.0,
PSHELL, 197, 197,1.18e-02, 197, , 197,
CORD2R       197       0   0.000   0.000   0.000   0.000   0.000   0.574
           0.574   0.819   0.000
MAT1, 198, 7.20e+10, , 0.33, 2780.0,
PSHELL, 198, 198,1.36e-02, 198, , 198,
CORD2R       198       0   0.000   0.000   0.000   0.000   0.000   0.574
           0.574   0.819   0.000
MAT1, 199, 7.20e+10, , 0.33, 2780.0,
PSHELL, 199, 199,1.25e-02, 199, , 199,
CORD2R       199       0   0.000   0.000   0.000   0.000   0.000   0.574
           0.574   0.819   0.000
MAT1, 200, 7.20e+10, , 0.33, 2780.0,
PSHELL, 200, 200,1.45e-02, 200, , 200,
CORD2R       200       0   0.000   0.000   0.000   0.000   0.000   0.574
           0.574   0.819   0.000
MAT1, 201, 7.20e+10, , 0.33, 2780.0,
PSHELL, 201, 201,1.32e-02, 201, , 201,
CORD2R       201       0   0.000   0.000   0.000   0.000   0.000   0.574
           0.574   0.819   0.000
MAT1, 202, 7.20e+10, , 0.33, 2780.0,
PSHELL, 202, 202,1.54e-02, 202, , 202,
CORD2R       202       0   0.000   0.000   0.000   0.000   0.000   0.574
           0.574   0.819   0.000
MAT1, 203, 7.20e+10, , 0.33, 2780.0,
PSHELL, 203, 203,1.40e-02, 203, , 203,
CORD2R       203       0   0.000   0.000   0.000   0.000   0.000   0.574
           0.574   0.819   0.000
MAT1, 204, 7.20e+10, , 0.33, 2780.0,
PSHELL, 204, 204,1.63e-02, 204, , 204,
CORD2R       204       0   0.000   0.000   0.000   0.000   0.000   0.574
           0.574   0.819   0.000
MAT1, 205, 7.20e+10, , 0.33, 2780.0,
PSHELL, 205, 205,1.49e-02, 205, , 205,
CORD2R       205       0   0.000   0.000   0.000   0.000   0.000   0.574
           0.574   0.819   0.000
MAT1, 206, 7.20e+10, , 0.33, 2780.0,
PSHELL, 206, 206,1.72e-02, 206, , 206,
CORD2R       206       0   0.000   0.000   0.000   0.000   0.000   0.574
           0.574   0.819   0.000
MAT1, 207, 7.20e+10, , 0.33, 2780.0,
PSHELL, 207, 207,1.57e-02, 207, , 207,
CORD2R       207       0   0.000   0.000   0.000   0.000   0.000   0.574
           0.574   0.819   0.000
MAT1, 208, 7.20e+10, , 0.33, 2780.0,
PSHELL, 208, 208,1.81e-02, 208, , 208,
CORD2R       208       0   0.000   0.000   0.000   0.000   0.000   0.574
           0.574   0.819   0.000
MAT1, 209, 7.20e+10, , 0.33, 2780.0,
PSHELL, 209, 209,1.65e-02, 209, , 209,
CORD2R       209       0   0.000   0.000   0.000   0.000   0.000   0.574
           0.574   0.819   0.000
MAT1, 210, 7.20e+10, , 0.33, 2780.0,
PSHELL, 210, 210,1.89e-02, 210, , 210,
CORD2R       210       0   0.000   0.000   0.000   0.000   0.000   0.574
           0.574   0.819   0.000
MAT1, 211, 7.20e+10, , 0.33, 2780.0,
PSHELL, 211, 211,1.74e-02, 211, , 211,
CORD2R       211       0   0.000   0.000   0.000   0.000   0.000   0.574
           0.574   0.819   0.000
MAT1, 212, 7.20e+10, , 0.33, 2780.0,
PSHELL, 212, 212,1.98e-02, 212, , 212,
CORD2R       212       0   0.000   0.000   0.000   0.000   0.000   0.574
           0.574   0.819   0.000
MAT1, 213, 7.20e+10, , 0.33, 2780.0,
PSHELL, 213, 213,1.82e-02, 213, , 213,
CORD2R       213       0   0.000   0.000   0.000   0.000   0.000   0.574
           0.574   0.819   0.000
MAT1, 214, 7.20e+10, , 0.33, 2780.0,
PSHELL, 214, 214,2.06e-02, 214, , 214,
CORD2R       214       0   0.000   0.000   0.000   0.000   0.000   0.574
           0.574   0.819   0.000
MAT1, 215, 7.20e+10, , 0.33, 2780.0,
PSHELL, 215, 215,1.91e-02, 215, , 215,
CORD2R       215       0   0.000   0.000   0.000   0.000   0.000   0.574
           0.574   0.819   0.000
MAT1, 216, 7.20e+10, , 0.33, 2780.0,
PSHELL, 216, 216,2.15e-02, 216, , 216,
CORD2R       216       0   0.000   0.000   0.000   0.000   0.000   0.574
           0.574   0.819   0.000
MAT1, 217, 7.20e+10, , 0.33, 2780.0,
PSHELL, 217, 217,2.00e-02, 217, , 217,
CORD2R       217       0   0.000   0.000   0.000   0.000   0.000   0.574
           0.574   0.819   0.000
MAT1, 218, 7.20e+10, , 0.33, 2780.0,
PSHELL, 218, 218,2.23e-02, 218, , 218,
CORD2R       218       0   0.000   0.000   0.000   0.000   0.000   0.574
           0.574   0.819   0.000
MAT1, 219, 7.20e+10, , 0.33, 2780.0,
PSHELL, 219, 219,2.09e-02, 219, , 219,
CORD2R       219       0   0.000   0.000   0.000   0.000   0.000   0.574
           0.574   0.819   0.000
MAT1, 220, 7.20e+10, , 0.33, 2780.0,
PSHELL, 220, 220,2.32e-02, 220, , 220,
CORD2R       220       0   0.000   0.000   0.000   0.000   0.000   0.574
           0.574   0.819   0.000
MAT1, 221, 7.20e+10, , 0.33, 2780.0,
PSHELL, 221, 221,2.17e-02, 221, , 221,
CORD2R       221       0   0.000   0.000   0.000   0.000   0.000   0.574
           0.574   0.819   0.000
MAT1, 222, 7.20e+10, , 0.33, 2780.0,
PSHELL, 222, 222,2.41e-02, 222, , 222,
CORD2R       222       0   0.000   0.000   0.000   0.000   0.000   0.574
           0.574   0.819   0.000
MAT1, 223, 7.20e+10, , 0.33, 2780.0,
PSHELL, 223, 223,2.26e-02, 223, , 223,
CORD2R       223       0   0.000   0.000   0.000   0.000   0.000   0.574
           0.574   0.819   0.000
MAT1, 224, 7.20e+10, , 0.33, 2780.0,
PSHELL, 224, 224,2.50e-02, 224, , 224,
CORD2R       224       0   0.000   0.000   0.000   0.000   0.000   0.574
           0.574   0.819   0.000
MAT1, 225, 7.20e+10, , 0.33, 2780.0,
PSHELL, 225, 225,2.35e-02, 225, , 225,
CORD2R       225       0   0.000   0.000   0.000   0.000   0.000   0.574
           0.574   0.819   0.000
MAT1, 226, 7.20e+10, , 0.33, 2780.0,
PSHELL, 226, 226,2.59e-02, 226, , 226,
CORD2R       226       0   0.000   0.000   0.000   0.000   0.000   0.574
           0.574   0.819   0.000
MAT1, 227, 7.20e+10, , 0.33, 2780.0,
PSHELL, 227, 227,2.44e-02, 227, , 227,
CORD2R       227       0   0.000   0.000   0.000   0.000   0.000   0.574
           0.574   0.819   0.000
MAT1, 228, 7.20e+10, , 0.33, 2780.0,
PSHELL, 228, 228,2.64e-02, 228, , 228,
CORD2R       228       0   0.000   0.000   0.000   0.000   0.000   0.574
           0.574   0.819   0.000
MAT1, 229, 7.20e+10, , 0.33, 2780.0,
PSHELL, 229, 229,2.52e-02, 229, , 229,
CORD2R       229       0   0.000   0.000   0.000   0.000   0.000   0.574
           0.574   0.819   0.000
MAT1, 230, 7.20e+10, , 0.33, 2780.0,
PSHELL, 230, 230,2.71e-02, 230, , 230,
CORD2R       230       0   0.000   0.000   0.000   0.000   0.000   0.574
           0.574   0.819   0.000
MAT1, 231, 7.20e+10, , 0.33, 2780.0,
PSHELL, 231, 231,2.59e-02, 231, , 231,
CORD2R       231       0   0.000   0.000   0.000   0.000   0.000   0.574
           0.574   0.819   0.000
MAT1, 232, 7.20e+10, , 0.33, 2780.0,
PSHELL, 232, 232,2.80e-02, 232, , 232,
CORD2R       232       0   0.000   0.000   0.000   0.000   0.000   0.574
           0.574   0.819   0.000
MAT1, 233, 7.20e+10, , 0.33, 2780.0,
PSHELL, 233, 233,2.68e-02, 233, , 233,
CORD2R       233       0   0.000   0.000   0.000   0.000   0.000   0.574
           0.574   0.819   0.000
MAT1, 234, 7.20e+10, , 0.33, 2780.0,
PSHELL, 234, 234,2.88e-02, 234, , 234,
CORD2R       234       0   0.000   0.000   0.000   0.000   0.000   0.574
           0.574   0.819   0.000
MAT1, 235, 7.20e+10, , 0.33, 2780.0,
PSHELL, 235, 235,2.75e-02, 235, , 235,
CORD2R       235       0   0.000   0.000   0.000   0.000   0.000   0.574
           0.574   0.819   0.000
MAT1, 236, 7.20e+10, , 0.33, 2780.0,
PSHELL, 236, 236,2.86e-02, 236, , 236,
CORD2R       236       0   0.000   0.000   0.000   0.000   0.000   0.574
           0.574   0.819   0.000
MAT1, 237, 7.20e+10, , 0.33, 2780.0,
PSHELL, 237, 237,2.74e-02, 237, , 237,
CORD2R       237       0   0.000   0.000   0.000   0.000   0.000   0.574
           0.574   0.819   0.000
MAT1, 238, 7.20e+10, , 0.33, 2780.0,
PSHELL, 238, 238,2.85e-02, 238, , 238,
CORD2R       238       0   0.000   0.000   0.000   0.000   0.000   0.574
           0.574   0.819   0.000
MAT1, 239, 7.20e+10, , 0.33, 2780.0,
PSHELL, 239, 239,2.80e-02, 239, , 239,
CORD2R       239       0   0.000   0.000   0.000   0.000   0.000   0.574
           0.574   0.819   0.000
MAT1, 240, 7.20e+10, , 0.33, 2780.0,
PSHELL, 240, 240,2.56e-02, 240, , 240,
CORD2R       240       0   0.000   0.000   0.000   0.000   0.000   0.574
           0.574   0.819   0.000
MAT1, 241, 7.20e+10, , 0.33, 2780.0,
PSHELL, 241, 241,3.50e-02, 241, , 241,
CORD2R       241       0   0.000   0.000   0.000   0.000   0.000   0.574
           0.574   0.819   0.000
MAT1, 242, 7.20e+10, , 0.33, 2780.0,
PSHELL, 242, 242,2.62e-02, 242, , 242,
CORD2R       242       0   0.000   0.000   0.000   0.000   0.000   0.574
           0.574   0.819   0.000
MAT1, 243, 7.20e+10, , 0.33, 2780.0,
PSHELL, 243, 243,3.52e-02, 243, , 243,
CORD2R       243       0   0.000   0.000   0.000   0.000   0.000   0.574
           0.574   0.819   0.000
MAT1, 244, 7.20e+10, , 0.33, 2780.0,
PSHELL, 244, 244,2.61e-02, 244, , 244,
CORD2R       244       0   0.000   0.000   0.000   0.000   0.000   0.574
           0.574   0.819   0.000
MAT1, 245, 7.20e+10, , 0.33, 2780.0,
PSHELL, 245, 245,3.42e-02, 245, , 245,
CORD2R       245       0   0.000   0.000   0.000   0.000   0.000   0.574
           0.574   0.819   0.000
MAT1, 246, 7.20e+10, , 0.33, 2780.0,
PSHELL, 246, 246,2.55e-02, 246, , 246,
CORD2R       246       0   0.000   0.000   0.000   0.000   0.000   0.574
           0.574   0.819   0.000
MAT1, 247, 7.20e+10, , 0.33, 2780.0,
PSHELL, 247, 247,3.33e-02, 247, , 247,
CORD2R       247       0   0.000   0.000   0.000   0.000   0.000   0.574
           0.574   0.819   0.000
MAT1, 248, 7.20e+10, , 0.33, 2780.0,
PSHELL, 248, 248,2.47e-02, 248, , 248,
CORD2R       248       0   0.000   0.000   0.000   0.000   0.000   0.574
           0.574   0.819   0.000
MAT1, 249, 7.20e+10, , 0.33, 2780.0,
PSHELL, 249, 249,3.22e-02, 249, , 249,
CORD2R       249       0   0.000   0.000   0.000   0.000   0.000   0.574
           0.574   0.819   0.000
MAT1, 250, 7.20e+10, , 0.33, 2780.0,
PSHELL, 250, 250,2.39e-02, 250, , 250,
CORD2R       250       0   0.000   0.000   0.000   0.000   0.000   0.574
           0.574   0.819   0.000
MAT1, 251, 7.20e+10, , 0.33, 2780.0,
PSHELL, 251, 251,3.11e-02, 251, , 251,
CORD2R       251       0   0.000   0.000   0.000   0.000   0.000   0.574
           0.574   0.819   0.000
MAT1, 252, 7.20e+10, , 0.33, 2780.0,
PSHELL, 252, 252,2.31e-02, 252, , 252,
CORD2R       252       0   0.000   0.000   0.000   0.000   0.000   0.574
           0.574   0.819   0.000
MAT1, 253, 7.20e+10, , 0.33, 2780.0,
PSHELL, 253, 253,3.00e-02, 253, , 253,
CORD2R       253       0   0.000   0.000   0.000   0.000   0.000   0.574
           0.574   0.819   0.000
MAT1, 254, 7.20e+10, , 0.33, 2780.0,
PSHELL, 254, 254,2.23e-02, 254, , 254,
CORD2R       254       0   0.000   0.000   0.000   0.000   0.000   0.574
           0.574   0.819   0.000
MAT1, 255, 7.20e+10, , 0.33, 2780.0,
PSHELL, 255, 255,2.89e-02, 255, , 255,
CORD2R       255       0   0.000   0.000   0.000   0.000   0.000   0.574
           0.574   0.819   0.000
MAT1, 256, 7.20e+10, , 0.33, 2780.0,
PSHELL, 256, 256,2.15e-02, 256, , 256,
CORD2R       256       0   0.000   0.000   0.000   0.000   0.000   0.574
           0.574   0.819   0.000
MAT1, 257, 7.20e+10, , 0.33, 2780.0,
PSHELL, 257, 257,2.78e-02, 257, , 257,
CORD2R       257       0   0.000   0.000   0.000   0.000   0.000   0.574
           0.574   0.819   0.000
MAT1, 258, 7.20e+10, , 0.33, 2780.0,
PSHELL, 258, 258,2.07e-02, 258, , 258,
CORD2R       258       0   0.000   0.000   0.000   0.000   0.000   0.574
           0.574   0.819   0.000
MAT1, 259, 7.20e+10, , 0.33, 2780.0,
PSHELL, 259, 259,2.67e-02, 259, , 259,
CORD2R       259       0   0.000   0.000   0.000   0.000   0.000   0.574
           0.574   0.819   0.000
MAT1, 260, 7.20e+10, , 0.33, 2780.0,
PSHELL, 260, 260,1.99e-02, 260, , 260,
CORD2R       260       0   0.000   0.000   0.000   0.000   0.000   0.574
           0.574   0.819   0.000
MAT1, 261, 7.20e+10, , 0.33, 2780.0,
PSHELL, 261, 261,2.56e-02, 261, , 261,
CORD2R       261       0   0.000   0.000   0.000   0.000   0.000   0.574
           0.574   0.819   0.000
MAT1, 262, 7.20e+10, , 0.33, 2780.0,
PSHELL, 262, 262,1.91e-02, 262, , 262,
CORD2R       262       0   0.000   0.000   0.000   0.000   0.000   0.574
           0.574   0.819   0.000
MAT1, 263, 7.20e+10, , 0.33, 2780.0,
PSHELL, 263, 263,2.45e-02, 263, , 263,
CORD2R       263       0   0.000   0.000   0.000   0.000   0.000   0.574
           0.574   0.819   0.000
MAT1, 264, 7.20e+10, , 0.33, 2780.0,
PSHELL, 264, 264,1.84e-02, 264, , 264,
CORD2R       264       0   0.000   0.000   0.000   0.000   0.000   0.574
           0.574   0.819   0.000
MAT1, 265, 7.20e+10, , 0.33, 2780.0,
PSHELL, 265, 265,2.45e-02, 265, , 265,
CORD2R       265       0   0.000   0.000   0.000   0.000   0.000   0.574
           0.574   0.819   0.000
MAT1, 266, 7.20e+10, , 0.33, 2780.0,
PSHELL, 266, 266,1.77e-02, 266, , 266,
CORD2R       266       0   0.000   0.000   0.000   0.000   0.000   0.574
           0.574   0.819   0.000
MAT1, 267, 7.20e+10, , 0.33, 2780.0,
PSHELL, 267, 267,2.34e-02, 267, , 267,
CORD2R       267       0   0.000   0.000   0.000   0.000   0.000   0.574
           0.574   0.819   0.000
MAT1, 268, 7.20e+10, , 0.33, 2780.0,
PSHELL, 268, 268,1.79e-02, 268, , 268,
CORD2R       268       0   0.000   0.000   0.000   0.000   0.000   0.574
           0.574   0.819   0.000
MAT1, 269, 7.20e+10, , 0.33, 2780.0,
PSHELL, 269, 269,2.23e-02, 269, , 269,
CORD2R       269       0   0.000   0.000   0.000   0.000   0.000   0.574
           0.574   0.819   0.000
MAT1, 270, 7.20e+10, , 0.33, 2780.0,
PSHELL, 270, 270,1.71e-02, 270, , 270,
CORD2R       270       0   0.000   0.000   0.000   0.000   0.000   0.574
           0.574   0.819   0.000
MAT1, 271, 7.20e+10, , 0.33, 2780.0,
PSHELL, 271, 271,2.13e-02, 271, , 271,
CORD2R       271       0   0.000   0.000   0.000   0.000   0.000   0.574
           0.574   0.819   0.000
MAT1, 272, 7.20e+10, , 0.33, 2780.0,
PSHELL, 272, 272,1.73e-02, 272, , 272,
CORD2R       272       0   0.000   0.000   0.000   0.000   0.000   0.574
           0.574   0.819   0.000
MAT1, 273, 7.20e+10, , 0.33, 2780.0,
PSHELL, 273, 273,2.68e-02, 273, , 273,
CORD2R       273       0   0.000   0.000   0.000   0.000   0.000   0.574
           0.574   0.819   0.000
MAT1, 274, 7.20e+10, , 0.33, 2780.0,
PSHELL, 274, 274,1.85e-02, 274, , 274,
CORD2R       274       0   0.000   0.000   0.000   0.000   0.000   0.574
           0.574   0.819   0.000
MAT1, 275, 7.20e+10, , 0.33, 2780.0,
PSHELL, 275, 275,2.57e-02, 275, , 275,
CORD2R       275       0   0.000   0.000   0.000   0.000   0.000   0.574
           0.574   0.819   0.000
MAT1, 276, 7.20e+10, , 0.33, 2780.0,
PSHELL, 276, 276,1.78e-02, 276, , 276,
CORD2R       276       0   0.000   0.000   0.000   0.000   0.000   0.574
           0.574   0.819   0.000
MAT1, 277, 7.20e+10, , 0.33, 2780.0,
PSHELL, 277, 277,2.46e-02, 277, , 277,
CORD2R       277       0   0.000   0.000   0.000   0.000   0.000   0.574
           0.574   0.819   0.000
MAT1, 278, 7.20e+10, , 0.33, 2780.0,
PSHELL, 278, 278,1.70e-02, 278, , 278,
CORD2R       278       0   0.000   0.000   0.000   0.000   0.000   0.574
           0.574   0.819   0.000
MAT1, 279, 7.20e+10, , 0.33, 2780.0,
PSHELL, 279, 279,2.35e-02, 279, , 279,
CORD2R       279       0   0.000   0.000   0.000   0.000   0.000   0.574
           0.574   0.819   0.000
MAT1, 280, 7.20e+10, , 0.33, 2780.0,
PSHELL, 280, 280,1.64e-02, 280, , 280,
CORD2R       280       0   0.000   0.000   0.000   0.000   0.000   0.574
           0.574   0.819   0.000
MAT1, 281, 7.20e+10, , 0.33, 2780.0,
PSHELL, 281, 281,3.39e-02, 281, , 281,
CORD2R       281       0   0.000   0.000   0.000   0.000   0.000   0.574
           0.574   0.819   0.000
MAT1, 282, 7.20e+10, , 0.33, 2780.0,
PSHELL, 282, 282,1.15e-02, 282, , 282,
CORD2R       282       0   0.000   0.000   0.000  -1.000   0.000   0.000
           0.000   0.000   1.000
MAT1, 283, 7.20e+10, , 0.33, 2780.0,
PSHELL, 283, 283,4.87e-03, 283, , 283,
CORD2R       283       0   0.000   0.000   0.000  -1.000   0.000   0.000
           0.000   0.000   1.000
MAT1, 284, 7.20e+10, , 0.33, 2780.0,
PSHELL, 284, 284,1.64e-02, 284, , 284,
CORD2R       284       0   0.000   0.000   0.000  -1.000   0.000   0.000
           0.000   0.000   1.000
MAT1, 285, 7.20e+10, , 0.33, 2780.0,
PSHELL, 285, 285,4.50e-02, 285, , 285,
CORD2R       285       0   0.000   0.000   0.000  -1.000   0.000   0.000
           0.000   0.000   1.000
MAT1, 286, 7.20e+10, , 0.33, 2780.0,
PSHELL, 286, 286,1.41e-02, 286, , 286,
CORD2R       286       0   0.000   0.000   0.000  -1.000   0.000   0.000
           0.000   0.000   1.000
MAT1, 287, 7.20e+10, , 0.33, 2780.0,
PSHELL, 287, 287,1.42e-02, 287, , 287,
CORD2R       287       0   0.000   0.000   0.000  -1.000   0.000   0.000
           0.000   0.000   1.000
