$ Femap Constraint Set 1 : Aluminum
SPC1           1  123456       1
SPC1           1  123456       2
SPC1           1  123456       3
SPC1           1  123456       4
SPC1           1  123456       5
SPC1           1  123456       6
SPC1           1  123456       7
SPC1           1  123456       8
SPC1           1  123456       9
SPC1           1  123456      10
SPC1           1  123456      11
SPC1           1  123456      12
SPC1           1  123456      13
SPC1           1  123456      14
SPC1           1  123456      15
SPC1           1  123456      16
SPC1           1  123456      17
SPC1           1  123456      18
SPC1           1  123456      19
SPC1           1  123456      20
$ ... 56 like lines cut
$ Femap Property 1 : Ribs
PSHELL         1       1     .02       1               1              0.
$ Femap Property 2 : Skins
PSHELL         2       1    .008       1               1              0.
$ Femap Property 3 : Spars
PSHELL         3       1    .005       1               1              0.
$ Femap Material 1 : Aluminum
MAT1           1  6.9+102.594+10     .33   2851.      0.      0.        
GRID           1       0      0.     -.5    -.08       0
GRID           2       0      0.     -.5-.026666       0
GRID           3       0      0.     -.5.0266666       0
GRID           4       0      0.     -.5     .08       0
GRID           5       0      0.-.444444    -.08       0
GRID           6       0      0.-.444444-.026666       0
GRID           7       0      0.-.444444.0266666       0
GRID           8       0      0.-.444444     .08       0
GRID           9       0      0.-.388888    -.08       0
GRID          10       0      0.-.388888-.026666       0
GRID          11       0      0.-.388888.0266666       0
GRID          12       0      0.-.388888     .08       0
GRID          13       0      0.-.333333    -.08       0
GRID          14       0      0.-.333333-.026666       0
GRID          15       0      0.-.333333.0266666       0
GRID          16       0      0.-.333333     .08       0
GRID          17       0      0.-.277777    -.08       0
GRID          18       0      0.-.277777-.026666       0
GRID          19       0      0.-.277777.0266666       0
GRID          20       0      0.-.277777     .08       0
$ ... 13676 like lines cut
CQUAD4         1       1       5       1       2       6      0.        
CQUAD4         2       1       6       2       3       7      0.        
CQUAD4         3       1       7       3       4       8      0.        
CQUAD4         4       1       9       5       6      10      0.        
CQUAD4         5       1      10       6       7      11      0.        
CQUAD4         6       1      11       7       8      12      0.        
CQUAD4         7       1      13       9      10      14      0.        
CQUAD4         8       1      14      10      11      15      0.        
CQUAD4         9       1      15      11      12      16      0.        
CQUAD4        10       1      17      13      14      18      0.        
CQUAD4        11       1      18      14      15      19      0.        
CQUAD4        12       1      19      15      16      20      0.        
CQUAD4        13       1      21      17      18      22      0.        
CQUAD4        14       1      22      18      19      23      0.        
CQUAD4        15       1      23      19      20      24      0.        
CQUAD4        16       1      25      21      22      26      0.        
CQUAD4        17       1      26      22      23      27      0.        
CQUAD4        18       1      27      23      24      28      0.        
CQUAD4        19       1      29      25      26      30      0.        
CQUAD4        20       1      30      26      27      31      0.        
$ ... 14254 like lines cut

