$ Beam optimization for shakedown wing with GVT results
$ Braden Frigoletto

$ Direct Text Input for Nastran System Cell Section
$ Direct Text Input for File Management Section
$ Direct Text Input for Executive Control
SOL 200
CEND

$ Direct Text Input for Global Case Control Data
TITLE = Eigenvalue and Eigenvector optimization
SUBTITLE = Shakedown Wing optimization to GVT results
ECHO = NONE
SPC = 2
DISP = ALL
DESOBJ(MIN) = 900
DESSUB = 400
ANALYSIS = MODES
SUBCASE 1
   LABEL = MODAL ANALYSIS
   METHOD = 1
   MODTRAK = 800
$   VECTOR(SORT1,REAL)=ALL
$   SPCFORCES(SORT1,REAL)=ALL

BEGIN BULK
$=====================================================================
$ ANALYSIS MODEL
$=====================================================================
$ Direct Text Input for Bulk Data
$   1  ||   2  ||   3  ||   4  ||   5  ||   6  ||   7  ||   8  ||   9  ||  10  |
MODTRAK 800						0.7
PARAM    POST    0
PARAM   PRTMAXIM YES
PARAM   SPARSEDR NO
PARAM   GRDPNT  0
EIGR    1       LAN                             10
        MAX

$ Elements and Element Properties for region : Spar_beam_props
PBEAM,31,1,1.6129E-4,5.4197E-10,8.6715E-9,,1.8275E-9,1E-6 
PBEAM,32,1,1.6129E-4,5.4197E-10,8.6715E-9,,1.8275E-9,1E-6
PBEAM,33,1,1.6129E-4,5.4197E-10,8.6715E-9,,1.8275E-9,1E-6
PBEAM,34,1,1.6129E-4,5.4197E-10,8.6715E-9,,1.8275E-9,1E-6

$ Pset: "Spar_beam_props" will be imported as: "pbeaml.1"
CBEAM    1       31       1       2       0.      0.     1.
CBEAM    2       31       2       4       0.      0.     1.
CBEAM    3       31       4       5       0.      0.     1.
CBEAM    4       31       5       6       0.      0.     1.
CBEAM    5       31       6       7       0.      0.     1.
CBEAM    6       31       7       8       0.      0.     1.
CBEAM    7       31       8       9       0.      0.     1.
CBEAM    8       31       9       10      0.      0.     1.
CBEAM    9       31       10      11      0.      0.     1.
CBEAM    10      32       11      12      0.      0.     1.
CBEAM    11      32       12      13      0.      0.     1.
CBEAM    12      32       13      14      0.      0.     1.
CBEAM    13      32       14      15      0.      0.     1.
CBEAM    14      32       15      16      0.      0.     1.
CBEAM    15      33       16      17      0.      0.     1.
CBEAM    16      33       17      18      0.      0.     1.
CBEAM    17      33       18      19      0.      0.     1.
CBEAM    18      33       19      20      0.      0.     1.
CBEAM    19      33       20      21      0.      0.     1.
CBEAM    20      33       21      22      0.      0.     1.
$ ... 8 like lines cut

$ Create new coordinate system along the beam axis
CORD2R,1,0,0.0,0.0,0.0,0.0,0.0,1.0,1.5,-.86599999666214,0.0

$$ Add CONM2 masses to represent mass of ribs ###CHECK DIRECTION OF Y + or - ###
$CONM2,29,4,1,0.0058,0.0,0.0288,0.0,
$1.489E-5,0.0,2.6E-7,0.0,0.0,1.464E-5
$CONM2,30,5,1,0.0058,0.0,0.0288,0.0,
$1.489E-5,0.0,2.6E-7,0.0,0.0,1.464E-5
$CONM2,31,6,1,0.0058,0.0,0.0288,0.0,
$1.489E-5,0.0,2.6E-7,0.0,0.0,1.464E-5
$CONM2,32,7,1,0.0058,0.0,0.0288,0.0,
$1.489E-5,0.0,2.6E-7,0.0,0.0,1.464E-5
$CONM2,33,8,1,0.0058,0.0,0.0288,0.0,
$1.489E-5,0.0,2.6E-7,0.0,0.0,1.464E-5
$CONM2,34,9,1,0.0058,0.0,0.0288,0.0,
$1.489E-5,0.0,2.6E-7,0.0,0.0,1.464E-5
$CONM2,35,10,1,0.0058,0.0,0.0288,0.0,
$1.489E-5,0.0,2.6E-7,0.0,0.0,1.464E-5
$CONM2,36,11,1,0.0058,0.0,0.0288,0.0,
$1.489E-5,0.0,2.6E-7,0.0,0.0,1.464E-5
$CONM2,37,12,1,0.0058,0.0,0.0288,0.0,
$1.489E-5,0.0,2.6E-7,0.0,0.0,1.464E-5
$CONM2,38,13,1,0.0058,0.0,0.0288,0.0,
$1.489E-5,0.0,2.6E-7,0.0,0.0,1.464E-5
$CONM2,39,14,1,0.0058,0.0,0.0288,0.0,
$1.489E-5,0.0,2.6E-7,0.0,0.0,1.464E-5
$CONM2,40,15,1,0.0058,0.0,0.0288,0.0,
$1.489E-5,0.0,2.6E-7,0.0,0.0,1.464E-5
$CONM2,41,16,1,0.0058,0.0,0.0288,0.0,
$1.489E-5,0.0,2.6E-7,0.0,0.0,1.464E-5
$CONM2,42,17,1,0.0058,0.0,0.0288,0.0,
$1.489E-5,0.0,2.6E-7,0.0,0.0,1.464E-5
$CONM2,43,18,1,0.0058,0.0,0.0288,0.0,
$1.489E-5,0.0,2.6E-7,0.0,0.0,1.464E-5
$CONM2,44,19,1,0.0058,0.0,0.0288,0.0,
$1.489E-5,0.0,2.6E-7,0.0,0.0,1.464E-5
$CONM2,45,20,1,0.0058,0.0,0.0288,0.0,
$1.489E-5,0.0,2.6E-7,0.0,0.0,1.464E-5
$CONM2,46,21,1,0.0058,0.0,0.0288,0.0,
$1.489E-5,0.0,2.6E-7,0.0,0.0,1.464E-5
$CONM2,47,22,1,0.0058,0.0,0.0288,0.0,
$1.489E-5,0.0,2.6E-7,0.0,0.0,1.464E-5
$CONM2,48,23,1,0.0058,0.0,0.0288,0.0,
$1.489E-5,0.0,2.6E-7,0.0,0.0,1.464E-5
$ ... 14 like lines cut
$
$$ Add CONM2 masses to represent mass of balsa spars
$CONM2,78,4,1,0.00162,0.0,0.0659,0.0,
$6.804E-9,0.0,4.874E-7,0.0,0.0,4.914E-7
$CONM2,79,5,1,0.00162,0.0,0.0659,0.0,
$6.804E-9,0.0,4.874E-7,0.0,0.0,4.914E-7
$CONM2,80,6,1,0.00162,0.0,0.0659,0.0,
$6.804E-9,0.0,4.874E-7,0.0,0.0,4.914E-7
$CONM2,81,7,1,0.00162,0.0,0.0659,0.0,
$6.804E-9,0.0,4.874E-7,0.0,0.0,4.914E-7
$CONM2,82,8,1,0.00162,0.0,0.0659,0.0,
$6.804E-9,0.0,4.874E-7,0.0,0.0,4.914E-7
$CONM2,83,9,1,0.00162,0.0,0.0659,0.0,
$6.804E-9,0.0,4.874E-7,0.0,0.0,4.914E-7
$CONM2,84,10,1,0.00162,0.0,0.0659,0.0,
$6.804E-9,0.0,4.874E-7,0.0,0.0,4.914E-7
$CONM2,85,11,1,0.00162,0.0,0.0659,0.0,
$6.804E-9,0.0,4.874E-7,0.0,0.0,4.914E-7
$CONM2,86,12,1,0.00162,0.0,0.0659,0.0,
$6.804E-9,0.0,4.874E-7,0.0,0.0,4.914E-7
$CONM2,87,13,1,0.00162,0.0,0.0659,0.0,
$6.804E-9,0.0,4.874E-7,0.0,0.0,4.914E-7
$CONM2,88,14,1,0.00162,0.0,0.0659,0.0,
$6.804E-9,0.0,4.874E-7,0.0,0.0,4.914E-7
$CONM2,89,15,1,0.00162,0.0,0.0659,0.0,
$6.804E-9,0.0,4.874E-7,0.0,0.0,4.914E-7
$CONM2,90,16,1,0.00162,0.0,0.0659,0.0,
$6.804E-9,0.0,4.874E-7,0.0,0.0,4.914E-7
$CONM2,91,17,1,0.00162,0.0,0.0659,0.0,
$6.804E-9,0.0,4.874E-7,0.0,0.0,4.914E-7
$CONM2,92,18,1,0.00162,0.0,0.0659,0.0,
$6.804E-9,0.0,4.874E-7,0.0,0.0,4.914E-7
$CONM2,93,19,1,0.00162,0.0,0.0659,0.0,
$6.804E-9,0.0,4.874E-7,0.0,0.0,4.914E-7
$CONM2,94,20,1,0.00162,0.0,0.0659,0.0,
$6.804E-9,0.0,4.874E-7,0.0,0.0,4.914E-7
$CONM2,95,21,1,0.00162,0.0,0.0659,0.0,
$6.804E-9,0.0,4.874E-7,0.0,0.0,4.914E-7
$CONM2,96,22,1,0.00162,0.0,0.0659,0.0,
$6.804E-9,0.0,4.874E-7,0.0,0.0,4.914E-7
$CONM2,97,23,1,0.00162,0.0,0.0659,0.0,
$6.804E-9,0.0,4.874E-7,0.0,0.0,4.914E-7
$ ... 14 like lines cut
$
$$ Add CONM2 masses to represent mass of control surfaces
$CONM2,60,8,1,0.0231,0.0,0.1452,0.0,
$7.88E-6,6.9E-7,9.761E-4,0.0,0.0,9.836E-4
$CONM2,61,18,1,0.0231,0.0,0.1452,0.0,
$5.01E-6,2.5E-7,7.375E-4,0.0,0.0,7.422E-4
$CONM2,62,27,1,0.0231,0.0,0.1454,0.0,
$5.0E-6,8.6E-7,5.751E-4,0.0,0.0,5.799E-4
$
$$ Add CONM2 masses to represent mass of servos and rotary encoders
$CONM2,63,9,1,0.019,0.0,0.0836,0.0,
$1.67E-6,4E-8,1.50E-6,0.0,0.0,2.72E-6
$CONM2,64,19,1,0.019,0.0,0.0836,0.0,
$1.67E-6,4E-8,1.50E-6,0.0,0.0,2.72E-6
$CONM2,65,27,1,0.019,0.0,0.0836,0.0,
$1.67E-6,4E-8,1.50E-6,0.0,0.0,2.72E-6
$
$CONM2,66,5,1,0.013,0.0,0.1193,0.0,
$2E-7,0.0,5.7E-7,0.0,0.0,5.7E-7
$CONM2,67,13,1,0.013,0.0,0.1193,0.0,
$2E-7,0.0,5.7E-7,0.0,0.0,5.7E-7
$CONM2,68,23,1,0.013,0.0,0.1193,0.0,
$2E-7,0.0,5.7E-7,0.0,0.0,5.7E-7
$CONM2,69,24,1,0.013,0.0,0.1193,0.0,
$2E-7,0.0,5.7E-7,0.0,0.0,5.7E-7
$CONM2,70,29,1,0.013,0.0,0.1193,0.0,
$2E-7,0.0,5.7E-7,0.0,0.0,5.7E-7
$
$$ Add CONM2 masses to represent mass of cables
$CONM2,105,4,1,0.00206,0.0,0.0342,0.0,
$4.2E-5,0.0,6.262E-7,0.0,0.0,6.262E-7
$CONM2,106,5,1,0.00206,0.0,0.0342,0.0,
$4.2E-5,0.0,6.262E-7,0.0,0.0,6.262E-7
$CONM2,107,6,1,0.00206,0.0,0.0342,0.0,
$4.2E-5,0.0,6.262E-7,0.0,0.0,6.262E-7
$CONM2,108,7,1,0.00206,0.0,0.0342,0.0,
$4.2E-5,0.0,6.262E-7,0.0,0.0,6.262E-7
$CONM2,109,8,1,0.00206,0.0,0.0342,0.0,
$4.2E-5,0.0,6.262E-7,0.0,0.0,6.262E-7
$CONM2,110,9,1,0.00206,0.0,0.0342,0.0,
$4.2E-5,0.0,6.262E-7,0.0,0.0,6.262E-7
$CONM2,111,10,1,0.00206,0.0,0.0342,0.0,
$4.2E-5,0.0,6.262E-7,0.0,0.0,6.262E-7
$CONM2,112,11,1,0.00206,0.0,0.0342,0.0,
$4.2E-5,0.0,6.262E-7,0.0,0.0,6.262E-7
$CONM2,113,12,1,0.00206,0.0,0.0342,0.0,
$4.2E-5,0.0,6.262E-7,0.0,0.0,6.262E-7
$CONM2,114,13,1,0.00206,0.0,0.0342,0.0,
$4.2E-5,0.0,6.262E-7,0.0,0.0,6.262E-7
$CONM2,115,14,1,0.00206,0.0,0.0342,0.0,
$4.2E-5,0.0,6.262E-7,0.0,0.0,6.262E-7
$CONM2,116,15,1,0.00206,0.0,0.0342,0.0,
$4.2E-5,0.0,6.262E-7,0.0,0.0,6.262E-7
$CONM2,117,16,1,0.00206,0.0,0.0342,0.0,
$4.2E-5,0.0,6.262E-7,0.0,0.0,6.262E-7
$CONM2,118,17,1,0.00206,0.0,0.0342,0.0,
$4.2E-5,0.0,6.262E-7,0.0,0.0,6.262E-7
$CONM2,119,18,1,0.00206,0.0,0.0342,0.0,
$4.2E-5,0.0,6.262E-7,0.0,0.0,6.262E-7
$CONM2,120,19,1,0.00206,0.0,0.0342,0.0,
$4.2E-5,0.0,6.262E-7,0.0,0.0,6.262E-7
$CONM2,121,20,1,0.00206,0.0,0.0342,0.0,
$4.2E-5,0.0,6.262E-7,0.0,0.0,6.262E-7
$CONM2,122,21,1,0.00206,0.0,0.0342,0.0,
$4.2E-5,0.0,6.262E-7,0.0,0.0,6.262E-7
$CONM2,123,22,1,0.00206,0.0,0.0342,0.0,
$4.2E-5,0.0,6.262E-7,0.0,0.0,6.262E-7
$CONM2,124,23,1,0.00206,0.0,0.0342,0.0,
$4.2E-5,0.0,6.262E-7,0.0,0.0,6.262E-7
$ ... 14 like lines cut
$
$$ Add CONM2 masses to represent balsa cover sections over servos (nodes 9, 19, and 27) (12g and 13.2g)
$CONM2,132,8,1,0.012,0.00298,0.020805,0.0,
$2.651E-5,0.0,4.86E-6,0.0,0.0,2.884E-5
$CONM2,133,10,1,0.0132,-0.00298,0.020805,0.0,
$2.916E-5,0.0,5.346E-6,0.0,0.0,3.173E-5
$
$CONM2,134,18,1,0.012,0.00298,0.020805,0.0,
$2.651E-5,0.0,4.86E-6,0.0,0.0,2.884E-5
$CONM2,135,20,1,0.0132,-0.00298,0.020805,0.0,
$2.916E-5,0.0,5.346E-6,0.0,0.0,3.173E-5
$
$CONM2,136,26,1,0.012,0.00298,0.020805,0.0,
$2.651E-5,0.0,4.86E-6,0.0,0.0,2.884E-5
$CONM2,137,28,1,0.0132,-0.00298,0.020805,0.0,
$2.916E-5,0.0,5.346E-6,0.0,0.0,3.173E-5

$ Referenced Material Records
$ Material Record : 6061-T6_Aluminum
MAT1     1      6.89+10         .33     2700.

$ Nodes of the Entire Model
GRID     1               0.      0.      0.
GRID*    2                              .066674999892712-.03849000111222
*        0.
GRID*    4                              .119761116802692-.06913851946592
*        0.
GRID*    5                              .172847226262093-.09978704154491
*        0.
GRID*    6                              .225933358073235-.13043557107448
*        0.
GRID*    7                              .279019474983215-.16108408570289
*        0.
GRID*    8                              .332105576992035-.19173258543014
*        0.
GRID*    9                              .385191679000855-.22238111495971
*        0.
GRID*    10                             .438277781009674-.25302964448928
*        0.
GRID*    11                             .491363912820816-.28367814421653
*        0.
GRID*    12                             .544450104236603-.31432670354843
*        0.
GRID*    13                             .597536146640778-.34497520327568
*        0.
GRID*    14                             .650622308254242-.37562373280525
*        0.
GRID*    15                             .703708410263062-.40627226233482
*        0.
GRID*    16                             .756794512271881-.43692079186439
*        0.
GRID*    17                             .809880554676056-.46756926178932
*        0.
GRID*    18                             .86296671628952 -.49821782112121
*        0.
GRID*    19                             .91605281829834 -.52886629104614
*        0.
GRID*    20                             .969138860702515-.55951482057571
*        0.
GRID*    21                             1.02222502231598-.59016335010528
*        0.
GRID*    22                             1.07531118392944-.62081187963485
*        0.
$ ... 16 like lines cut

$ Loads for Load Case : Default
SPCADD   2       1
$ Displacement Constraints of Load Set : Clamp
SPC1     1       123456  1       2

$==================================================================================
$ DESIGN MODEL
$==================================================================================
$ DESIGN VARIABLE DEFINITION
$   1  ||   2  ||   3  ||   4  ||   5  ||   6  ||   7  ||   8  ||   9  ||  10  |
DESVAR  51      S1I1    5.42E-10 5E-11  5E-8
DESVAR  52      S1I2    8.672E-9 5E-11  5E-8
DESVAR  53      S1J     1.828E-9 5E-11  5E-8

DESVAR  54      S2I1    5.42E-10 5E-11  5E-8
DESVAR  55      S2I2    8.672E-9 5E-11  5E-8
DESVAR  56      S2J     1.828E-9 5E-11  5E-8

DESVAR  57      S3I1    5.42E-10 5E-11  5E-8
DESVAR  58      S3I2    8.672E-9 5E-11  5E-8
DESVAR  59      S3J     1.828E-9 5E-11  5E-8

DESVAR  510     S4I1    5.42E-10 5E-11  5E-8
DESVAR  511     S4I2    8.672E-9 5E-11  5E-8
DESVAR  512     S4J     1.828E-9 5E-11  5E-8

DESVAR  513     S1NSM   1E-6     1E-6   1E1
DESVAR  514     S2NSM   1E-6     1E-6   1E1
DESVAR  515     S3NSM   1E-6     1E-6   1E1
DESVAR  516     S4NSM   1E-6     1E-6   1E1

$ DEFINITION OF DESIGN VARIABLES TO ANALYSIS MODEL PARAMETER RELATIONS
$   1  ||   2  ||   3  ||   4  ||   5  ||   6  ||   7  ||   8  ||   9  ||  10  |
DVPREL1 71      PBEAM   31      5										+			
+,		51      1.0
DVPREL1 72      PBEAM   31      6										+
+,		52      1.0
DVPREL1 73      PBEAM   31      8										+
+,		53      1.0

DVPREL1 74      PBEAM   32      5										+
+,		54      1.0
DVPREL1 75      PBEAM   32      6										+
+,		55      1.0
DVPREL1 76      PBEAM   32      8										+
+,		56      1.0

DVPREL1 77      PBEAM   33      5										+
+,		57      1.0
DVPREL1 78      PBEAM   33      6										+
+,		58      1.0
DVPREL1 79      PBEAM   33      8										+
+,		59      1.0

DVPREL1 710     PBEAM   34      5										+
+,		510     1.0
DVPREL1 711     PBEAM   34      6										+
+,		511     1.0
DVPREL1 712     PBEAM   34      8										+
+,		512     1.0		

DVPREL1 713     PBEAM   31      9                                       +
+,      513     1.0
DVPREL1 714     PBEAM   32      9                                       +
+,      514     1.0
DVPREL1 715     PBEAM   33      9                                       +
+,      515     1.0
DVPREL1 716     PBEAM   34      9                                       +
+,      516     1.0

$ STRUCTURAL RESPONSE IDENTIFICATION
$ NATURAL FREQUENCIES !!!MODE NUMBERS MAY BE WRONG!!!
$   1  ||   2  ||   3  ||   4  ||   5  ||   6  ||   7  ||   8  ||   9  ||  10  |
$DRESP1  61      WBOOP1  FREQ                    1
$DRESP1  62      WBIP1   FREQ                    2
$DRESP1  63      WBOOP2  FREQ                    3
$DRESP1  64      WBOOP3  FREQ                    5
$DRESP1  65      WT1     FREQ                    4
$DRESP1  66      WBOOP4  FREQ                    7
$DRESP1  67      WBIP2   FREQ                    6
$DRESP1  68      WT2     FREQ                    8
$DRESP1  69      WBIP3   FREQ                    10 
DRESP1  61      WBOOP1  FREQ                    1
DRESP1  62      WBIP1   FREQ                    2
DRESP1  63      WBOOP2  FREQ                    3
$DRESP1  64      WBOOP3  FREQ                    4
DRESP1  65      WT1     FREQ                    10
$DRESP1  66      WBOOP4  FREQ                    6
DRESP1  67      WBIP2   FREQ                    5
$DRESP1  68      WT2     FREQ                    18
$DRESP1  69      WBIP3   FREQ                    8           

$ DISPLACEMENTS AT ACCELEROMETER RIBS FOR SPECIFIC MODES (B-OOP-2 AND B-IP-2)
$   1  ||   2  ||   3  ||   4  ||   5  ||   6  ||   7  ||   8  ||   9  ||  10  |
DRESP1  610     D1BOOP2 DISP                    3       3       11
DRESP1  611     D2BOOP2 DISP                    3       3       16
DRESP1  612     D3BOOP2 DISP                    3       3       22
DRESP1  613     D4BOOP2 DISP                    3       3       29

DRESP1  614     D1BIP2  DISP                    2       5       11
DRESP1  615     D2BIP2  DISP                    2       5       16
DRESP1  616     D3BIP2  DISP                    2       5       22
DRESP1  617     D4BIP2  DISP                    2       5       29

$ DEFINE EQUATIONS
$OBJECTIVE
$   1  ||   2  ||   3  ||   4  ||   5  ||   6  ||   7  ||   8  ||   9  ||  10  |
$DEQATN  81      WD1(WBOOP1,WBIP1,WBOOP2,WBOOP3,WT1,WBOOP4,WBIP2,WT2,
$		WBIP3) = (1.4-WBOOP1);
$		WD2 = (6.4-WBIP1);
$		WD3 = (9.1-WBOOP2);
$		WD4 = (24.8-WBOOP3);
$		WD5 = (26.8-WT1);
$		WD6 = (52.3-WBOOP4);
$		WD7 = (65.3-WBIP2);
$		WD8 = (88.9-WT2);
$		WD9 = (135.6-WBIP3);
$		F = SQRT(SSQ(WD1,WD2,WD3,WD4,WD5,WD6,WD7,WD8,WD9)/9.0)
DEQATN  81      WD1(WBOOP1,WBIP1,WBOOP2,WT1,WBIP2) = (1.4-WBOOP1);
		WD2 = (6.4-WBIP1);
		WD3 = (9.1-WBOOP2);
		WD5 = (26.8-WT1);
		WD7 = (65.3-WBIP2);
		F = SQRT(SSQ(WD1,WD2,WD3,WD5,WD7)/5.0)		
		 

$ DEFINE OJECTIVE FUNCTION
$   1  ||   2  ||   3  ||   4  ||   5  ||   6  ||   7  ||   8  ||   9  ||  10  |
$DRESP2  900     OBJ     81												+
$+,		DRESP1  61      62      63      64      65      66      67      +
$+,      ,		68		69
DRESP2  900     OBJ     81												+
+,		DRESP1  61      62      63      65      67     

$CONSTRAINT 1
DEQATN  82      OD1(D1BOOP2,D2BOOP2,D3BOOP2,D4BOOP2) = 
		(0.5204-ABS(D1BOOP2));
		OD2 = (0.6843-ABS(D2BOOP2));
		OD3 = (0.3187-ABS(D3BOOP2));
		OD4 = (-0.8728+ABS(D4BOOP2));
		G1 = RSS(OD1,OD2,OD3,OD4)

$CONSTRAINT 2
DEQATN 	83      ID1(D1BIP2,D2BIP2,D3BIP2,D4BIP2) = 
		(0.7077-ABS(D1BIP2));
		ID2 = (0.8159-ABS(D2BIP2));
		ID3 = (0.2444-ABS(D3BIP2));
		ID4 = (-0.9698+ABS(D4BIP2));
		G2 = RSS(ID1,ID2,ID3,ID4)

$ DEFINE CONSTRAINT FUNCTIONS
$   1  ||   2  ||   3  ||   4  ||   5  ||   6  ||   7  ||   8  ||   9  ||  10  |
DRESP2  901     CON1    82												+
+,		DRESP1  610     611     612     613 

DRESP2  902     CON2    83												+
+,		DRESP1  614     615     616     617

$ DEFINE BOUNDS FOR INEQUALITY CONSTRAINTS !!!TRY 0.1 FOR NOW!!!
$   1  ||   2  ||   3  ||   4  ||   5  ||   6  ||   7  ||   8  ||   9  ||  10  |
DCONSTR 21      901             0.1
DCONSTR 22      902             0.1
DCONADD 400     21      22

$ SET OPTIMIZATION PARAMETERS
$   1  ||   2  ||   3  ||   4  ||   5  ||   6  ||   7  ||   8  ||   9  ||  10  |
$DOPTPRM DESMAX  40      DELX	0.1 
DOPTPRM,IPRINT,1,DESMAX,10,DELX,0.1,P1,1,+
+,P2,15
PARAM   DESPCH1 -1

ENDDATA 
