$------------------------------------------------------------------------------
$ Wing structure FEM without concentrated masses
$
$------------------------------------------------------------------------------
$ Spar beam property: height = 0.25 inches, width = 1.5 inches
$------------------------------------------------------------------------------
PBEAML   1       1               BAR
        .00605  .0400
$------------------------------------------------------------------------------
$ Spar material properties: E = 70 GPa, G = 26.316 GPa, rho = 3000 kg/m3
$
$ Remarks: only E and G are given, nu is computed internally to be consistent
$ Bilal: E, G and rho were updated on 10/18/22 based on information from 
$ https://asm.matweb.com/search/SpecificMaterial.asp?bassnum=ma7075t6
$------------------------------------------------------------------------------
MAT1       1    7.0e+10         0.33    2700.0
$------------------------------------------------------------------------------
$ Spar beam elements
$------------------------------------------------------------------------------
CBEAM    1       1       1       2       0.     1.       0.
CBEAM    2       1       2       3       0.     1.       0.
CBEAM    3       1       3       4       0.     1.       0.
CBEAM    4       1       4       5       0.     1.       0.
CBEAM    5       1       5       6       0.     1.       0.
CBEAM    6       1       6       7       0.     1.       0.
CBEAM    7       1       7       8       0.     1.       0.
CBEAM    8       1       8       9       0.     1.       0.
CBEAM    9       1       9       10       0.     1.       0.
CBEAM    10       1       10       11       0.     1.       0.
CBEAM    11       1       11       12       0.     1.       0.
CBEAM    12       1       12       13       0.     1.       0.
CBEAM    13       1       13       14       0.     1.       0.
CBEAM    14       1       14       15       0.     1.       0.
CBEAM    15       1       15       16       0.     1.       0.
CBEAM    16       1       16       17       0.     1.       0.
CBEAM    17       1       17       18       0.     1.       0.
CBEAM    18       1       18       19       0.     1.       0.
CBEAM    19       1       19       20       0.     1.       0.
CBEAM    20       1       20       21       0.     1.       0.
$ ... 20 like lines cut
$------------------------------------------------------------------------------
$ Grids
$------------------------------------------------------------------------------
GRID,1,,0.000000,0.0000,0.0
GRID,2,,0.021651,0.0375,0.0
GRID,3,,0.043301,0.0750,0.0
GRID,4,,0.064952,0.1125,0.0
GRID,5,,0.086603,0.1500,0.0
GRID,6,,0.108250,0.1875,0.0
GRID,7,,0.129900,0.2250,0.0
GRID,8,,0.151550,0.2625,0.0
GRID,9,,0.173210,0.3000,0.0
GRID,10,,0.19486,0.3375,0.0
GRID,11,,0.21651,0.3750,0.0
GRID,12,,0.23816,0.4125,0.0
GRID,13,,0.25981,0.4500,0.0
GRID,14,,0.28146,0.4875,0.0
GRID,15,,0.30311,0.5250,0.0
GRID,16,,0.32476,0.5625,0.0
GRID,17,,0.34641,0.6000,0.0
GRID,18,,0.36806,0.6375,0.0
GRID,19,,0.38971,0.6750,0.0
GRID,20,,0.41136,0.7125,0.0
$ ... 21 like lines cut

$------------------------------------------------------------------------------
$ Cables concentrated masses
$
$ Remarks:
$
$ 1. Cable masses are defined by specifying their offset with respect to the
$    nodes they are attached to (corresponding to a position at 5% chord).
$------------------------------------------------------------------------------
CONM2,201,3,,0.062450,-0.0556,0.0,0.0
CONM2,202,7,,0.056430,-0.0556,0.0,0.0
CONM2,203,11,,0.05063,-0.0556,0.0,0.0
CONM2,204,15,,0.04461,-0.0556,0.0,0.0
CONM2,205,19,,0.03881,-0.0556,0.0,0.0
CONM2,206,23,,0.03279,-0.0556,0.0,0.0
CONM2,207,27,,0.02474,-0.0556,0.0,0.0
CONM2,208,31,,0.02098,-0.0556,0.0,0.0
CONM2,209,35,,0.01292,-0.0556,0.0,0.0
CONM2,210,39,,0.00916,-0.0556,0.0,0.0

$------------------------------------------------------------------------------
$ Pod concentrated masses
$ 1. Bilal: Pod masses were changed from 0.21679 to 0.20 on 10/18/22
$           to be more consistent with the total wing mass of 3.537 kg
$------------------------------------------------------------------------------
CONM2,101,3,-1,0.20,0.11404,0.07838,0.006262,
     ,4.48E-04,-2.66E-04,1.29E-03,5.11E-06,-1.83E-06,1.67E-03,
CONM2,102,7,-1,0.20,0.20065,0.22838,0.006262,
     ,4.48E-04,-2.66E-04,1.29E-03,5.11E-06,-1.83E-06,1.67E-03,
CONM2,103,11,-1,0.20,0.28725,0.37838,0.006262,
     ,4.48E-04,-2.66E-04,1.29E-03,5.11E-06,-1.83E-06,1.67E-03,
CONM2,104,15,-1,0.20,0.37385,0.52838,0.006262,
     ,4.48E-04,-2.66E-04,1.29E-03,5.11E-06,-1.83E-06,1.67E-03,
CONM2,105,19,-1,0.20,0.46045,0.67838,0.006262,
     ,4.48E-04,-2.66E-04,1.29E-03,5.11E-06,-1.83E-06,1.67E-03,
CONM2,106,23,-1,0.20,0.54706,0.82838,0.006262,
     ,4.48E-04,-2.66E-04,1.29E-03,5.11E-06,-1.83E-06,1.67E-03,
CONM2,107,27,-1,0.20,0.63366,0.97838,0.006262,
     ,4.48E-04,-2.66E-04,1.29E-03,5.11E-06,-1.83E-06,1.67E-03,
CONM2,108,31,-1,0.20,0.72026,1.1284,0.006262,
     ,4.48E-04,-2.66E-04,1.29E-03,5.11E-06,-1.83E-06,1.67E-03,
CONM2,109,35,-1,0.20,0.80686,1.2784,0.006262,
     ,4.48E-04,-2.66E-04,1.29E-03,5.11E-06,-1.83E-06,1.67E-03,
CONM2,110,39,-1,0.20,0.89347,1.4284,0.006262,
     ,4.48E-04,-2.66E-04,1.29E-03,5.11E-06,-1.83E-06,1.67E-03,
$
SPCADD       777       1
$----------Boundary Conditions----------
SPC1           1  123456       1