$ MSC.Nastran input file created on September 30, 2020 at 20:56:37 by
$ Patran 2019
$ Direct Text Input for Nastran System Cell Section
$ Direct Text Input for File Management Section
$ Direct Text Input for Executive Control
$ Normal Modes Analysis, Database
SOL 200
CEND
$ Direct Text Input for Global Case Control Data
TITLE = MSC.Nastran job created on 25-Sep-20 at 20:55:46
ECHO = NONE
$ Using Nastran default values for RESVEC
ANALYSIS = MODES
SUBCASE 1
   DESOBJ(min) = 22
   MODTRAK = 300
   SUBTITLE=Default
   METHOD = 1
   SPC = 2
   VECTOR(SORT1,REAL)=ALL
$ Direct Text Input for this Subcase
BEGIN BULK
$ Direct Text Input for Bulk Data
MDLPRM   HDF5    0
PARAM   PRTMAXIM YES
EIGRL    1       0.     1000.    25      0                       MASS
$ Elements and Element Properties for region : beam-section
$ Ten beam elements. One of each 0.15 m of the beam
PBEAML   1       1               BAR
        .051    .0031
PBEAML   2       2               BAR
        .051    .0031
PBEAML   3       3               BAR
        .051    .0031
PBEAML   4       4               BAR
        .051    .0031
PBEAML   5       5               BAR
        .051    .0031
PBEAML   6       6               BAR
        .051    .0031
PBEAML   7       7               BAR
        .051    .0031
PBEAML   8       8               BAR
        .051    .0031
PBEAML   9       9               BAR
        .051    .0031
PBEAML   10       10               BAR
        .051    .0031

$ Pset: "beam-section" will be imported as: "pbeaml.1"
CBEAM    1       1       1       2       0.     1.       0.
CBEAM    2       1       2       3       0.     1.       0.
CBEAM    3       1       3       4       0.     1.       0.
CBEAM    4       1       4       5       0.     1.       0.
CBEAM    5       1       5       6       0.     1.       0.
CBEAM    6       1       6       7       0.     1.       0.
CBEAM    7       1       7       8       0.     1.       0.
CBEAM    8       1       8       9       0.     1.       0.
CBEAM    9       2       9       10      0.     1.       0.
CBEAM    10      2       10      11      0.     1.       0.
CBEAM    11      2       11      12      0.     1.       0.
CBEAM    12      2       12      13      0.     1.       0.
CBEAM    13      2       13      14      0.     1.       0.
CBEAM    14      2       14      15      0.     1.       0.
CBEAM    15      2       15      16      0.     1.       0.
CBEAM    16      2       16      17      0.     1.       0.
CBEAM    17      3       17      18      0.     1.       0.
CBEAM    18      3       18      19      0.     1.       0.
CBEAM    19      3       19      20      0.     1.       0.
CBEAM    20      3       20      21      0.     1.       0.
$ ... 60 like lines cut
$ Referenced Material Records
$ Material Record : aluminum
$ Description of Material : Date: 25-Sep-20           Time: 20:48:43
MAT1     1      7.+10           .33     2700.
MAT1     2      7.+10           .33     2700.
MAT1     3      7.+10           .33     2700.
MAT1     4      7.+10           .33     2700.
MAT1     5      7.+10           .33     2700.
MAT1     6      7.+10           .33     2700.
MAT1     7      7.+10           .33     2700.
MAT1     8      7.+10           .33     2700.
MAT1     9      7.+10           .33     2700.
MAT1     10      7.+10           .33     2700.

$ Nodes of the Entire Model
GRID     1               0.      0.      0.
GRID*    2                              .018750000745058 0.
*        0.
GRID*    3                              .037500001490116 0.
*        0.
GRID*    4                              .056250002235174 0.
*        0.
GRID*    5                              .075000002980232 0.
*        0.
GRID     6              .09375   0.      0.
GRID*    7                              .112500004470348 0.
*        0.
GRID*    8                              .131249994039536 0.
*        0.
GRID*    9                              .150000005960465 0.
*        0.
GRID*    10                             .168750002980232 0.
*        0.
GRID     11             .1875    0.      0.
GRID*    12                             .206250011920929 0.
*        0.
GRID*    13                             .225000008940697 0.
*        0.
GRID*    14                             .243749991059303 0.
*        0.
GRID*    15                             .262499988079071 0.
*        0.
GRID     16             .28125   0.      0.
GRID*    17                             .300000011920929 0.
*        0.
GRID*    18                             .318749994039536 0.
*        0.
GRID*    19                             .337499976158142 0.
*        0.
GRID*    20                             .356249988079071 0.
*        0.
GRID*    21                             .374999970197678 0.
*        0.
GRID*    22                             .393749982118607 0.
*        0.
GRID*    23                             .412500023841858 0.
*        0.
GRID*    24                             .43124994635582  0.
*        0.
GRID*    25                             .449999988079071 0.
*        0.
GRID*    26                             .468749940395355 0.
*        0.
GRID*    27                             .487499922513962 0.
*        0.
GRID*    28                             .506249964237213 0.
*        0.
GRID*    29                             .524999916553497 0.
*        0.
GRID*    30                             .543749988079071 0.
*        0.
GRID*    31                             .56249988079071  0.
*        0.
GRID*    32                             .581249833106995 0.
*        0.
GRID*    33                             .599999904632568 0.
*        0.
GRID*    34                             .618749856948853 0.
*        0.
GRID*    35                             .637499928474426 0.
*        0.
GRID*    36                             .65624988079071  0.
*        0.
$ ... 58 like lines cut
GRID     66             1.21875  0.      0.
GRID*    67                             1.23749995231628 0.
*        0.
GRID*    68                             1.25624990463257 0.
*        0.
GRID*    69                             1.27500009536743 0.
*        0.
GRID*    70                             1.29375004768372 0.
*        0.
GRID*    71                             1.31250011920929 0.
*        0.
GRID*    72                             1.33125007152557 0.
*        0.
GRID*    73                             1.35000002384186 0.
*        0.
GRID*    74                             1.36875021457672 0.
*        0.
GRID*    75                             1.38750016689301 0.
*        0.
GRID*    76                             1.40625023841858 0.
*        0.
GRID*    77                             1.42500019073486 0.
*        0.
GRID*    78                             1.44375014305115 0.
*        0.
GRID*    79                             1.46250033378601 0.
*        0.
GRID*    80                             1.4812502861023  0.
*        0.
GRID     81             1.5      0.      0.


$ Bulk data entry to list modes to track
MODTRAK,300,1,5,

$ Density design variables for each section of material
DESVAR,100,R0,2640.,2640.,2810.,
DESVAR,101,R1,2640.,2640.,2810.,
DESVAR,102,R2,2640.,2640.,2810.,
DESVAR,103,R3,2640.,2640.,2810.,
DESVAR,104,R4,2640.,2640.,2810.,
DESVAR,105,R5,2640.,2640.,2810.,
DESVAR,106,R6,2640.,2640.,2810.,
DESVAR,107,R7,2640.,2640.,2810.,
DESVAR,108,R8,2640.,2640.,2810.,
DESVAR,109,R9,2640.,2640.,2810.,

$ Stiffness design variable for each section of material
DESVAR,150,E0,7.3+10,6.7+10,7.3+10,
DESVAR,151,E1,7.3+10,6.7+10,7.3+10,
DESVAR,152,E2,7.3+10,6.7+10,7.3+10,
DESVAR,153,E3,7.3+10,6.7+10,7.3+10,
DESVAR,154,E4,7.3+10,6.7+10,7.3+10,
DESVAR,155,E5,7.3+10,6.7+10,7.3+10,
DESVAR,156,E6,7.3+10,6.7+10,7.3+10,
DESVAR,157,E7,7.3+10,6.7+10,7.3+10,
DESVAR,158,E8,7.3+10,6.7+10,7.3+10,
DESVAR,159,E9,7.3+10,6.7+10,7.3+10,

$ Link density DESVAR to to material
DVMREL1,200,MAT1,1,RHO,
       ,100,1.0,
DVMREL1,201,MAT1,2,RHO,
       ,101,1.0,
DVMREL1,202,MAT1,3,RHO,
       ,102,1.0,
DVMREL1,203,MAT1,4,RHO,
       ,103,1.0,
DVMREL1,204,MAT1,5,RHO,
       ,104,1.0,
DVMREL1,205,MAT1,6,RHO,
       ,105,1.0,
DVMREL1,206,MAT1,7,RHO,
       ,106,1.0,
DVMREL1,207,MAT1,8,RHO,
       ,107,1.0,
DVMREL1,208,MAT1,9,RHO,
       ,108,1.0,
DVMREL1,209,MAT1,10,RHO,
       ,109,1.0,

$ Link sitffness DESVAR to material
DVMREL1,250,MAT1,1,E,
       ,150,1.0,
DVMREL1,251,MAT1,2,E,
       ,151,1.0,
DVMREL1,252,MAT1,3,E,
       ,152,1.0,
DVMREL1,253,MAT1,4,E,
       ,153,1.0,
DVMREL1,254,MAT1,5,E,
       ,154,1.0,
DVMREL1,255,MAT1,6,E,
       ,155,1.0,
DVMREL1,256,MAT1,7,E,
       ,156,1.0,
DVMREL1,257,MAT1,8,E,
       ,157,1.0,
DVMREL1,258,MAT1,9,E,
       ,158,1.0,
DVMREL1,259,MAT1,10,E,
       ,159,1.0,


$  objective functions together in design response
DRESP2,22,R1,21,,,,,,+
+,       DRESP1,31,32,33,34,35,

$ A,B,C,D,E are the first five frequncies of the structure
DRESP1  31      A       FREQ                    1
DRESP1  32      B       FREQ                    2
DRESP1  33      C       FREQ                    3
DRESP1  34      D       FREQ                    4
DRESP1  35      E       FREQ                    5

$ Objective Function Definition (Optimal reference first freq - current iteration first freq)
DEQATN  21      F1(A,B,C,D,E) = (1.13-A)**2;
        F2 = (7.1-B)**2;
        F3 = (18.6-C)**2;
        F4 = (19.9-D)**2;
        F5 = (38.9-E)**2;
        F = F1+F2+F3+F4+F5

$ Loads for Load Case : Default
SPCADD   2       1
$ Displacement Constraints of Load Set : clamped-root
SPC1     1       123456  1
$ Referenced Coordinate Frames
ENDDATA 174dd727
