$ Displacement Constraints of Load Set : Clamp
SPC1     1       123456  19769   THRU    19844
$ Elements and Element Properties for region : Ribs
PSHELL   1       1     .021      1               1
$ Pset: "Ribs" will be imported as: "pshell.1"
CQUAD4   1       1       17537   17538   17545   17544   0.      0.
CQUAD4   2       1       17538   17539   17546   17545   0.      0.
CQUAD4   3       1       17539   17540   17547   17546   0.      0.
CQUAD4   4       1       17540   17541   17548   17547   0.      0.
CQUAD4   5       1       17541   17542   17549   17548   0.      0.
CQUAD4   6       1       17542   17543   17550   17549   0.      0.
CQUAD4   7       1       17543   8       27      17550   0.      0.
CQUAD4   8       1       8       9       28      27      0.      0.
CQUAD4   9       1       9       10      29      28      0.      0.
CQUAD4   10      1       10      11      30      29      0.      0.
CQUAD4   11      1       11      12      31      30      0.      0.
CQUAD4   12      1       12      13      32      31      0.      0.
CQUAD4   13      1       13      14      33      32      0.      0.
CQUAD4   14      1       14      15      34      33      0.      0.
CQUAD4   15      1       15      16      35      34      0.      0.
CQUAD4   16      1       16      17      36      35      0.      0.
CQUAD4   17      1       17      18      37      36      0.      0.
CQUAD4   18      1       18      19      38      37      0.      0.
CQUAD4   19      1       17544   17545   17552   17551   0.      0.
CQUAD4   20      1       17545   17546   17553   17552   0.      0.
$ ... 1654 like lines cut
$ Elements and Element Properties for region : Skins
PSHELL   2       1     .0083     1               1
$ Pset: "Skins" will be imported as: "pshell.2"
CQUAD4   3475    2       19769   19770   22481   21145   0.      0.
CQUAD4   3476    2       19770   19771   22482   22481   0.      0.
CQUAD4   3477    2       19771   19772   22483   22482   0.      0.
CQUAD4   3478    2       19772   19773   22484   22483   0.      0.
CQUAD4   3479    2       19773   19774   22485   22484   0.      0.
CQUAD4   3480    2       19774   19775   22486   22485   0.      0.
CQUAD4   3481    2       19775   19776   22487   22486   0.      0.
CQUAD4   3482    2       19776   19777   22488   22487   0.      0.
CQUAD4   3483    2       19777   19778   22489   22488   0.      0.
CQUAD4   3484    2       19778   19779   22490   22489   0.      0.
CQUAD4   3485    2       19779   19780   22491   22490   0.      0.
CQUAD4   3486    2       19780   19781   22492   22491   0.      0.
CQUAD4   3487    2       19781   19782   22493   22492   0.      0.
CQUAD4   3488    2       19782   19783   22494   22493   0.      0.
CQUAD4   3489    2       19783   19784   22495   22494   0.      0.
CQUAD4   3490    2       19784   19785   22496   22495   0.      0.
CQUAD4   3491    2       19785   19786   22497   22496   0.      0.
CQUAD4   3492    2       19786   19787   21133   22497   0.      0.
CQUAD4   3493    2       21145   22481   22500   21149   0.      0.
CQUAD4   3494    2       22481   22482   22501   22500   0.      0.
$ ... 10780 like lines cut
$ Elements and Element Properties for region : Spars
PSHELL   3       1     .0051     1               1
$ Pset: "Spars" will be imported as: "pshell.3"
CQUAD4   1675    3       19      38      2362    2361    0.      0.
CQUAD4   1676    3       38      57      2363    2362    0.      0.
CQUAD4   1677    3       57      76      2364    2363    0.      0.
CQUAD4   1678    3       2361    2362    2366    2365    0.      0.
CQUAD4   1679    3       2362    2363    2367    2366    0.      0.
CQUAD4   1680    3       2363    2364    2368    2367    0.      0.
CQUAD4   1681    3       2365    2366    2370    2369    0.      0.
CQUAD4   1682    3       2366    2367    2371    2370    0.      0.
CQUAD4   1683    3       2367    2368    2372    2371    0.      0.
CQUAD4   1684    3       2369    2370    2374    2373    0.      0.
CQUAD4   1685    3       2370    2371    2375    2374    0.      0.
CQUAD4   1686    3       2371    2372    2376    2375    0.      0.
CQUAD4   1687    3       2373    2374    2378    2377    0.      0.
CQUAD4   1688    3       2374    2375    2379    2378    0.      0.
CQUAD4   1689    3       2375    2376    2380    2379    0.      0.
CQUAD4   1690    3       2377    2378    19846   19845   0.      0.
CQUAD4   1691    3       2378    2379    19847   19846   0.      0.
CQUAD4   1692    3       2379    2380    19848   19847   0.      0.
CQUAD4   1693    3       19845   19846   19850   19849   0.      0.
CQUAD4   1694    3       19846   19847   19851   19850   0.      0.
$ ... 1780 like lines cut
$ Referenced Material Records
$ Material Record : Aluminum
$ Description of Material :
MAT1     1      7.1+10          .33     2729.
$ Nodes of the Entire Model
GRID     8              16.     .1111111-.08
GRID     9              16.     .0555555-.08
GRID     10             16.     -1.49-8 -.08
GRID     11             16.     -.055555-.08
GRID     12             16.     -.111111-.08
GRID     13             16.     -.166666-.08
GRID     14             16.     -.222222-.08
GRID     15             16.     -.277777-.08
GRID     16             16.     -.333333-.08
GRID     17             16.     -.388888-.08
GRID     18             16.     -.444444-.08
GRID     19             16.     -.5     -.08
GRID     27             16.     .1111111-.026666
GRID     28             16.     .0555555-.026666
GRID     29             16.     -1.49-8 -.026666
GRID     30             16.     -.055555-.026666
GRID     31             16.     -.111111-.026666
GRID     32             16.     -.166666-.026666
GRID     33             16.     -.222222-.026666
GRID     34             16.     -.277777-.026666
$ ... 13676 like lines cut

