INIT MASTER(S)
NASTRAN SYSTEM(442)=-1,SYSTEM(319)=1
ID FEMAP,FEMAP
SOL SEMODES
CEND
  TITLE = modal
  ECHO = NONE
  DISPLACEMENT(PLOT) = ALL
  SPCFORCE(PLOT) = ALL
  ESE(PLOT) = ALL
  METHOD = 1
  SPC = 1
BEGIN BULK
$ ***************************************************************************
$   Written by : Femap
$   Version    : 2020.2.2
$   Translator : Simcenter Nastran
$   From Model : 
$   Date       : Sun Mar 28 16:11:03 2021
$   Output To  : C:\Users\bilal\Documents\GitHub\FEM-updating-for-VFS\VF beam model\1.5m_beam\FEMAP\
$ ***************************************************************************
$
PARAM,PRGPST,YES
PARAM,POST,-1
PARAM,OGEOM,NO
PARAM,AUTOSPC,YES
PARAM,GRDPNT,0
EIGRL          1                      20       0                    MASS
CORD2C         1       0      0.      0.      0.      0.      0.      1.+FEMAPC1
+FEMAPC1      1.      0.      1.        
CORD2S         2       0      0.      0.      0.      0.      0.      1.+FEMAPC2
+FEMAPC2      1.      0.      1.        
$ Femap Constraint Set 1 : Clamp
SPC1           1  123456       1
$ Femap Property 1 : Beam
PBEAML         1       1 MSCBML0     BAR                                +       
+           .051   .0031      0.        
$ Femap Material 1 : Aluminum
MATS1          1         NLELAST                                        
MAT1           1  6.9+10             .33      0.      0.      0.        
GRID           1       0      0.      0.      0.       0
GRID           2       0     .01      0.      0.       0
GRID           3       0     .02      0.      0.       0
GRID           4       0     .03      0.      0.       0
GRID           5       0     .04      0.      0.       0
GRID           6       0     .05      0.      0.       0
GRID           7       0     .06      0.      0.       0
GRID           8       0     .07      0.      0.       0
GRID           9       0     .08      0.      0.       0
GRID          10       0     .09      0.      0.       0
GRID          11       0      .1      0.      0.       0
GRID          12       0     .11      0.      0.       0
GRID          13       0     .12      0.      0.       0
GRID          14       0     .13      0.      0.       0
GRID          15       0     .14      0.      0.       0
GRID          16       0     .15      0.      0.       0
GRID          17       0     .16      0.      0.       0
GRID          18       0     .17      0.      0.       0
GRID          19       0     .18      0.      0.       0
GRID          20       0     .19      0.      0.       0
$ ... 131 like lines cut
CBEAM          1       1       1       2      0.      0.      1.
CBEAM          2       1       2       3      0.      0.      1.
CBEAM          3       1       3       4      0.      0.      1.
CBEAM          4       1       4       5      0.      0.      1.
CBEAM          5       1       5       6      0.      0.      1.
CBEAM          6       1       6       7      0.      0.      1.
CBEAM          7       1       7       8      0.      0.      1.
CBEAM          8       1       8       9      0.      0.      1.
CBEAM          9       1       9      10      0.      0.      1.
CBEAM         10       1      10      11      0.      0.      1.
CBEAM         11       1      11      12      0.      0.      1.
CBEAM         12       1      12      13      0.      0.      1.
CBEAM         13       1      13      14      0.      0.      1.
CBEAM         14       1      14      15      0.      0.      1.
CBEAM         15       1      15      16      0.      0.      1.
CBEAM         16       1      16      17      0.      0.      1.
CBEAM         17       1      17      18      0.      0.      1.
CBEAM         18       1      18      19      0.      0.      1.
CBEAM         19       1      19      20      0.      0.      1.
CBEAM         20       1      20      21      0.      0.      1.
$ ... 130 like lines cut
ENDDATA 324acc94
