$----------Material Property----------
MAT1       1    7.0e+10         0.33    2700.0  
MAT1       2    7.0e+10         0.33    2700.0
MAT1       3    7.0e+10         0.33    2700.0

$----------Element Property----------
PBEAML     1       1            BAR                                     
           0.05    0.003
PBEAML     2       2            BAR                                     
           0.05    0.003
PBEAML     3       3            BAR                                     
           0.05    0.003

$----------Grid Points----------
GRID       1               1.000   1.000   1.000
GRID       2               1.020   1.000   1.000
GRID       3               1.040   1.000   1.000
GRID       4               1.060   1.000   1.000
GRID       5               1.080   1.000   1.000
GRID       6               1.100   1.000   1.000
GRID       7               1.120   1.000   1.000
GRID       8               1.140   1.000   1.000
GRID       9               1.160   1.000   1.000
GRID       10              1.180   1.000   1.000
GRID       11              1.200   1.000   1.000
GRID       12              1.220   1.000   1.000
GRID       13              1.240   1.000   1.000
GRID       14              1.260   1.000   1.000
GRID       15              1.280   1.000   1.000
GRID       16              1.300   1.000   1.000
GRID       17              1.320   1.000   1.000
GRID       18              1.340   1.000   1.000
GRID       19              1.360   1.000   1.000
GRID       20              1.380   1.000   1.000
$ ... 56 like lines cut

$----------Beam Elements----------
CBEAM      1       1       1       2       0.000   0.000   1.000
CBEAM      2       1       2       3       0.000   0.000   1.000
CBEAM      3       1       3       4       0.000   0.000   1.000
CBEAM      4       1       4       5       0.000   0.000   1.000
CBEAM      5       1       5       6       0.000   0.000   1.000
CBEAM      6       1       6       7       0.000   0.000   1.000
CBEAM      7       1       7       8       0.000   0.000   1.000
CBEAM      8       1       8       9       0.000   0.000   1.000
CBEAM      9       1       9       10      0.000   0.000   1.000
CBEAM      10      1       10      11      0.000   0.000   1.000
CBEAM      11      1       11      12      0.000   0.000   1.000
CBEAM      12      1       12      13      0.000   0.000   1.000
CBEAM      13      1       13      14      0.000   0.000   1.000
CBEAM      14      1       14      15      0.000   0.000   1.000
CBEAM      15      1       15      16      0.000   0.000   1.000
CBEAM      16      1       16      17      0.000   0.000   1.000
CBEAM      17      1       17      18      0.000   0.000   1.000
CBEAM      18      1       18      19      0.000   0.000   1.000
CBEAM      19      1       19      20      0.000   0.000   1.000
CBEAM      20      1       20      21      0.000   0.000   1.000
$ ... 55 like lines cut

$----------Concentrated Masses----------
CONM2   1001    38      0       0.1     0.01    0.1     0.0
        0.0     0.0     0.0     0.0     0.0     0.0
CONM2   1002    76      0       0.1     0.0     -0.1    0.0
        0.0     0.0     0.0     0.0     0.0     0.0

$----------Boundary Conditions-----------
SPC1    1       123456  1
SPCADD  777     1